version 2
run Default-0-20220913-23:17:37-2670676
attr configname Default
attr datetime 20220913-23:17:37
attr experiment Default
attr inifile omnetpp.ini
attr iterationvars ""
attr iterationvarsf ""
attr measurement ""
attr network RSUExampleScenario
attr processid 2670676
attr repetition 0
attr replication #0
attr resultdir results
attr runnumber 0
attr seedset 0
param *.playgroundSizeX 2500m
param *.playgroundSizeY 2500m
param *.playgroundSizeZ 50m
param *.annotations.draw true
param *.obstacles.obstacles "xmldoc(\"config.xml\", \"//AnalogueModel[@type='SimpleObstacleShadowing']/obstacles\")"
param *.manager.updateInterval 1s
param *.manager.host "\"localhost\""
param *.manager.port 9999
param *.manager.autoShutdown true
param *.manager.launchConfig "xmldoc(\"erlangen.launchd.xml\")"
param *.rsu[0].mobility.x 2000
param *.rsu[0].mobility.y 2000
param *.rsu[0].mobility.z 3
param *.rsu[*].applType "\"TraCIDemoRSU11p\""
param *.rsu[*].appl.headerLength "80 bit"
param *.rsu[*].appl.sendBeacons false
param *.rsu[*].appl.dataOnSch false
param *.rsu[*].appl.beaconInterval 1s
param *.rsu[*].appl.beaconUserPriority 7
param *.rsu[*].appl.dataUserPriority 5
param *.rsu[*].nic.phy80211p.antennaOffsetZ "0 m"
param *.connectionManager.sendDirect true
param *.connectionManager.maxInterfDist 2600m
param *.connectionManager.drawMaxIntfDist false
param *.**.nic.mac1609_4.useServiceChannel false
param *.**.nic.mac1609_4.txPower 20mW
param *.**.nic.mac1609_4.bitrate 6Mbps
param *.**.nic.phy80211p.minPowerLevel -110dBm
param *.**.nic.phy80211p.useNoiseFloor true
param *.**.nic.phy80211p.noiseFloor -98dBm
param *.**.nic.phy80211p.decider "xmldoc(\"config.xml\")"
param *.**.nic.phy80211p.analogueModels "xmldoc(\"config.xml\")"
param *.**.nic.phy80211p.usePropagationDelay true
param *.**.nic.phy80211p.antenna "xmldoc(\"antenna.xml\", \"/root/Antenna[@id='monopole']\")"
param *.node[*].nic.phy80211p.antennaOffsetY "0 m"
param *.node[*].nic.phy80211p.antennaOffsetZ "1.895 m"
param *.node[*].applType "\"TraCIDemo11p\""
param *.node[*].appl.headerLength "80 bit"
param *.node[*].appl.sendBeacons false
param *.node[*].appl.dataOnSch false
param *.node[*].appl.beaconInterval 1s
param *.node[*].veinsmobility.x 0
param *.node[*].veinsmobility.y 0
param *.node[*].veinsmobility.z 0
param *.node[*].veinsmobility.setHostSpeed false
param *.node[*0].veinsmobility.accidentCount 1
param *.node[*0].veinsmobility.accidentStart 73s
param *.node[*0].veinsmobility.accidentDuration 50s

vector 0 RSUExampleScenario.node[0].veinsmobility posx ETV
vector 1 RSUExampleScenario.node[0].veinsmobility posy ETV
vector 2 RSUExampleScenario.node[0].veinsmobility speed ETV
vector 3 RSUExampleScenario.node[0].veinsmobility acceleration ETV
vector 4 RSUExampleScenario.node[0].veinsmobility co2emission ETV
vector 5 RSUExampleScenario.node[1].veinsmobility posx ETV
vector 6 RSUExampleScenario.node[1].veinsmobility posy ETV
vector 7 RSUExampleScenario.node[1].veinsmobility speed ETV
vector 8 RSUExampleScenario.node[1].veinsmobility acceleration ETV
vector 9 RSUExampleScenario.node[1].veinsmobility co2emission ETV
vector 10 RSUExampleScenario.node[2].veinsmobility posx ETV
vector 11 RSUExampleScenario.node[2].veinsmobility posy ETV
vector 12 RSUExampleScenario.node[2].veinsmobility speed ETV
vector 13 RSUExampleScenario.node[2].veinsmobility acceleration ETV
vector 14 RSUExampleScenario.node[2].veinsmobility co2emission ETV
vector 15 RSUExampleScenario.node[3].veinsmobility posx ETV
vector 16 RSUExampleScenario.node[3].veinsmobility posy ETV
vector 17 RSUExampleScenario.node[3].veinsmobility speed ETV
vector 18 RSUExampleScenario.node[3].veinsmobility acceleration ETV
vector 19 RSUExampleScenario.node[3].veinsmobility co2emission ETV
vector 20 RSUExampleScenario.node[4].veinsmobility posx ETV
vector 21 RSUExampleScenario.node[4].veinsmobility posy ETV
vector 22 RSUExampleScenario.node[4].veinsmobility speed ETV
vector 23 RSUExampleScenario.node[4].veinsmobility acceleration ETV
vector 24 RSUExampleScenario.node[4].veinsmobility co2emission ETV
vector 25 RSUExampleScenario.node[5].veinsmobility posx ETV
vector 26 RSUExampleScenario.node[5].veinsmobility posy ETV
vector 27 RSUExampleScenario.node[5].veinsmobility speed ETV
vector 28 RSUExampleScenario.node[5].veinsmobility acceleration ETV
vector 29 RSUExampleScenario.node[5].veinsmobility co2emission ETV
vector 30 RSUExampleScenario.node[6].veinsmobility posx ETV
vector 31 RSUExampleScenario.node[6].veinsmobility posy ETV
vector 32 RSUExampleScenario.node[6].veinsmobility speed ETV
vector 33 RSUExampleScenario.node[6].veinsmobility acceleration ETV
vector 34 RSUExampleScenario.node[6].veinsmobility co2emission ETV
vector 35 RSUExampleScenario.node[7].veinsmobility posx ETV
vector 36 RSUExampleScenario.node[7].veinsmobility posy ETV
vector 37 RSUExampleScenario.node[7].veinsmobility speed ETV
vector 38 RSUExampleScenario.node[7].veinsmobility acceleration ETV
vector 39 RSUExampleScenario.node[7].veinsmobility co2emission ETV
vector 40 RSUExampleScenario.node[8].veinsmobility posx ETV
vector 41 RSUExampleScenario.node[8].veinsmobility posy ETV
vector 42 RSUExampleScenario.node[8].veinsmobility speed ETV
vector 43 RSUExampleScenario.node[8].veinsmobility acceleration ETV
vector 44 RSUExampleScenario.node[8].veinsmobility co2emission ETV
vector 45 RSUExampleScenario.node[9].veinsmobility posx ETV
vector 46 RSUExampleScenario.node[9].veinsmobility posy ETV
vector 47 RSUExampleScenario.node[9].veinsmobility speed ETV
vector 48 RSUExampleScenario.node[9].veinsmobility acceleration ETV
vector 49 RSUExampleScenario.node[9].veinsmobility co2emission ETV
vector 50 RSUExampleScenario.node[10].veinsmobility posx ETV
vector 51 RSUExampleScenario.node[10].veinsmobility posy ETV
vector 52 RSUExampleScenario.node[10].veinsmobility speed ETV
vector 53 RSUExampleScenario.node[10].veinsmobility acceleration ETV
vector 54 RSUExampleScenario.node[10].veinsmobility co2emission ETV
vector 55 RSUExampleScenario.node[11].veinsmobility posx ETV
vector 56 RSUExampleScenario.node[11].veinsmobility posy ETV
vector 57 RSUExampleScenario.node[11].veinsmobility speed ETV
vector 58 RSUExampleScenario.node[11].veinsmobility acceleration ETV
vector 59 RSUExampleScenario.node[11].veinsmobility co2emission ETV
vector 60 RSUExampleScenario.node[12].veinsmobility posx ETV
vector 61 RSUExampleScenario.node[12].veinsmobility posy ETV
vector 62 RSUExampleScenario.node[12].veinsmobility speed ETV
vector 63 RSUExampleScenario.node[12].veinsmobility acceleration ETV
vector 64 RSUExampleScenario.node[12].veinsmobility co2emission ETV
vector 65 RSUExampleScenario.node[13].veinsmobility posx ETV
vector 66 RSUExampleScenario.node[13].veinsmobility posy ETV
vector 67 RSUExampleScenario.node[13].veinsmobility speed ETV
vector 68 RSUExampleScenario.node[13].veinsmobility acceleration ETV
vector 69 RSUExampleScenario.node[13].veinsmobility co2emission ETV
vector 70 RSUExampleScenario.node[14].veinsmobility posx ETV
vector 71 RSUExampleScenario.node[14].veinsmobility posy ETV
vector 72 RSUExampleScenario.node[14].veinsmobility speed ETV
vector 73 RSUExampleScenario.node[14].veinsmobility acceleration ETV
vector 74 RSUExampleScenario.node[14].veinsmobility co2emission ETV
vector 75 RSUExampleScenario.node[15].veinsmobility posx ETV
vector 76 RSUExampleScenario.node[15].veinsmobility posy ETV
vector 77 RSUExampleScenario.node[15].veinsmobility speed ETV
vector 78 RSUExampleScenario.node[15].veinsmobility acceleration ETV
vector 79 RSUExampleScenario.node[15].veinsmobility co2emission ETV
vector 80 RSUExampleScenario.node[16].veinsmobility posx ETV
vector 81 RSUExampleScenario.node[16].veinsmobility posy ETV
vector 82 RSUExampleScenario.node[16].veinsmobility speed ETV
vector 83 RSUExampleScenario.node[16].veinsmobility acceleration ETV
vector 84 RSUExampleScenario.node[16].veinsmobility co2emission ETV
vector 85 RSUExampleScenario.node[17].veinsmobility posx ETV
vector 86 RSUExampleScenario.node[17].veinsmobility posy ETV
vector 87 RSUExampleScenario.node[17].veinsmobility speed ETV
vector 88 RSUExampleScenario.node[17].veinsmobility acceleration ETV
vector 89 RSUExampleScenario.node[17].veinsmobility co2emission ETV
vector 90 RSUExampleScenario.node[18].veinsmobility posx ETV
vector 91 RSUExampleScenario.node[18].veinsmobility posy ETV
vector 92 RSUExampleScenario.node[18].veinsmobility speed ETV
vector 93 RSUExampleScenario.node[18].veinsmobility acceleration ETV
vector 94 RSUExampleScenario.node[18].veinsmobility co2emission ETV
vector 95 RSUExampleScenario.node[19].veinsmobility posx ETV
vector 96 RSUExampleScenario.node[19].veinsmobility posy ETV
vector 97 RSUExampleScenario.node[19].veinsmobility speed ETV
vector 98 RSUExampleScenario.node[19].veinsmobility acceleration ETV
vector 99 RSUExampleScenario.node[19].veinsmobility co2emission ETV
vector 100 RSUExampleScenario.node[20].veinsmobility posx ETV
vector 101 RSUExampleScenario.node[20].veinsmobility posy ETV
vector 102 RSUExampleScenario.node[20].veinsmobility speed ETV
vector 103 RSUExampleScenario.node[20].veinsmobility acceleration ETV
vector 104 RSUExampleScenario.node[20].veinsmobility co2emission ETV
vector 105 RSUExampleScenario.node[21].veinsmobility posx ETV
vector 106 RSUExampleScenario.node[21].veinsmobility posy ETV
vector 107 RSUExampleScenario.node[21].veinsmobility speed ETV
vector 108 RSUExampleScenario.node[21].veinsmobility acceleration ETV
vector 109 RSUExampleScenario.node[21].veinsmobility co2emission ETV
vector 110 RSUExampleScenario.node[22].veinsmobility posx ETV
vector 111 RSUExampleScenario.node[22].veinsmobility posy ETV
vector 112 RSUExampleScenario.node[22].veinsmobility speed ETV
vector 113 RSUExampleScenario.node[22].veinsmobility acceleration ETV
vector 114 RSUExampleScenario.node[22].veinsmobility co2emission ETV
vector 115 RSUExampleScenario.node[23].veinsmobility posx ETV
vector 116 RSUExampleScenario.node[23].veinsmobility posy ETV
vector 117 RSUExampleScenario.node[23].veinsmobility speed ETV
vector 118 RSUExampleScenario.node[23].veinsmobility acceleration ETV
vector 119 RSUExampleScenario.node[23].veinsmobility co2emission ETV
vector 120 RSUExampleScenario.node[24].veinsmobility posx ETV
vector 121 RSUExampleScenario.node[24].veinsmobility posy ETV
vector 122 RSUExampleScenario.node[24].veinsmobility speed ETV
vector 123 RSUExampleScenario.node[24].veinsmobility acceleration ETV
vector 124 RSUExampleScenario.node[24].veinsmobility co2emission ETV
vector 125 RSUExampleScenario.node[25].veinsmobility posx ETV
vector 126 RSUExampleScenario.node[25].veinsmobility posy ETV
vector 127 RSUExampleScenario.node[25].veinsmobility speed ETV
vector 128 RSUExampleScenario.node[25].veinsmobility acceleration ETV
vector 129 RSUExampleScenario.node[25].veinsmobility co2emission ETV
vector 130 RSUExampleScenario.node[26].veinsmobility posx ETV
vector 131 RSUExampleScenario.node[26].veinsmobility posy ETV
vector 132 RSUExampleScenario.node[26].veinsmobility speed ETV
vector 133 RSUExampleScenario.node[26].veinsmobility acceleration ETV
vector 134 RSUExampleScenario.node[26].veinsmobility co2emission ETV
vector 135 RSUExampleScenario.node[27].veinsmobility posx ETV
vector 136 RSUExampleScenario.node[27].veinsmobility posy ETV
vector 137 RSUExampleScenario.node[27].veinsmobility speed ETV
vector 138 RSUExampleScenario.node[27].veinsmobility acceleration ETV
vector 139 RSUExampleScenario.node[27].veinsmobility co2emission ETV
vector 140 RSUExampleScenario.node[28].veinsmobility posx ETV
vector 141 RSUExampleScenario.node[28].veinsmobility posy ETV
vector 142 RSUExampleScenario.node[28].veinsmobility speed ETV
vector 143 RSUExampleScenario.node[28].veinsmobility acceleration ETV
vector 144 RSUExampleScenario.node[28].veinsmobility co2emission ETV
vector 145 RSUExampleScenario.node[29].veinsmobility posx ETV
vector 146 RSUExampleScenario.node[29].veinsmobility posy ETV
vector 147 RSUExampleScenario.node[29].veinsmobility speed ETV
vector 148 RSUExampleScenario.node[29].veinsmobility acceleration ETV
vector 149 RSUExampleScenario.node[29].veinsmobility co2emission ETV
vector 150 RSUExampleScenario.node[30].veinsmobility posx ETV
vector 151 RSUExampleScenario.node[30].veinsmobility posy ETV
vector 152 RSUExampleScenario.node[30].veinsmobility speed ETV
vector 153 RSUExampleScenario.node[30].veinsmobility acceleration ETV
vector 154 RSUExampleScenario.node[30].veinsmobility co2emission ETV
vector 155 RSUExampleScenario.node[31].veinsmobility posx ETV
vector 156 RSUExampleScenario.node[31].veinsmobility posy ETV
vector 157 RSUExampleScenario.node[31].veinsmobility speed ETV
vector 158 RSUExampleScenario.node[31].veinsmobility acceleration ETV
vector 159 RSUExampleScenario.node[31].veinsmobility co2emission ETV
vector 160 RSUExampleScenario.node[32].veinsmobility posx ETV
vector 161 RSUExampleScenario.node[32].veinsmobility posy ETV
vector 162 RSUExampleScenario.node[32].veinsmobility speed ETV
vector 163 RSUExampleScenario.node[32].veinsmobility acceleration ETV
vector 164 RSUExampleScenario.node[32].veinsmobility co2emission ETV
vector 165 RSUExampleScenario.node[33].veinsmobility posx ETV
vector 166 RSUExampleScenario.node[33].veinsmobility posy ETV
vector 167 RSUExampleScenario.node[33].veinsmobility speed ETV
vector 168 RSUExampleScenario.node[33].veinsmobility acceleration ETV
vector 169 RSUExampleScenario.node[33].veinsmobility co2emission ETV
vector 170 RSUExampleScenario.node[34].veinsmobility posx ETV
vector 171 RSUExampleScenario.node[34].veinsmobility posy ETV
vector 172 RSUExampleScenario.node[34].veinsmobility speed ETV
vector 173 RSUExampleScenario.node[34].veinsmobility acceleration ETV
vector 174 RSUExampleScenario.node[34].veinsmobility co2emission ETV
vector 175 RSUExampleScenario.node[35].veinsmobility posx ETV
vector 176 RSUExampleScenario.node[35].veinsmobility posy ETV
vector 177 RSUExampleScenario.node[35].veinsmobility speed ETV
vector 178 RSUExampleScenario.node[35].veinsmobility acceleration ETV
vector 179 RSUExampleScenario.node[35].veinsmobility co2emission ETV
vector 180 RSUExampleScenario.node[36].veinsmobility posx ETV
vector 181 RSUExampleScenario.node[36].veinsmobility posy ETV
vector 182 RSUExampleScenario.node[36].veinsmobility speed ETV
vector 183 RSUExampleScenario.node[36].veinsmobility acceleration ETV
vector 184 RSUExampleScenario.node[36].veinsmobility co2emission ETV
vector 185 RSUExampleScenario.node[37].veinsmobility posx ETV
vector 186 RSUExampleScenario.node[37].veinsmobility posy ETV
vector 187 RSUExampleScenario.node[37].veinsmobility speed ETV
vector 188 RSUExampleScenario.node[37].veinsmobility acceleration ETV
vector 189 RSUExampleScenario.node[37].veinsmobility co2emission ETV
vector 190 RSUExampleScenario.node[38].veinsmobility posx ETV
vector 191 RSUExampleScenario.node[38].veinsmobility posy ETV
vector 192 RSUExampleScenario.node[38].veinsmobility speed ETV
vector 193 RSUExampleScenario.node[38].veinsmobility acceleration ETV
vector 194 RSUExampleScenario.node[38].veinsmobility co2emission ETV
vector 195 RSUExampleScenario.node[39].veinsmobility posx ETV
vector 196 RSUExampleScenario.node[39].veinsmobility posy ETV
vector 197 RSUExampleScenario.node[39].veinsmobility speed ETV
vector 198 RSUExampleScenario.node[39].veinsmobility acceleration ETV
vector 199 RSUExampleScenario.node[39].veinsmobility co2emission ETV
vector 200 RSUExampleScenario.node[40].veinsmobility posx ETV
vector 201 RSUExampleScenario.node[40].veinsmobility posy ETV
vector 202 RSUExampleScenario.node[40].veinsmobility speed ETV
vector 203 RSUExampleScenario.node[40].veinsmobility acceleration ETV
vector 204 RSUExampleScenario.node[40].veinsmobility co2emission ETV
vector 205 RSUExampleScenario.node[41].veinsmobility posx ETV
vector 206 RSUExampleScenario.node[41].veinsmobility posy ETV
vector 207 RSUExampleScenario.node[41].veinsmobility speed ETV
vector 208 RSUExampleScenario.node[41].veinsmobility acceleration ETV
vector 209 RSUExampleScenario.node[41].veinsmobility co2emission ETV
vector 210 RSUExampleScenario.node[42].veinsmobility posx ETV
vector 211 RSUExampleScenario.node[42].veinsmobility posy ETV
vector 212 RSUExampleScenario.node[42].veinsmobility speed ETV
vector 213 RSUExampleScenario.node[42].veinsmobility acceleration ETV
vector 214 RSUExampleScenario.node[42].veinsmobility co2emission ETV
vector 215 RSUExampleScenario.node[43].veinsmobility posx ETV
vector 216 RSUExampleScenario.node[43].veinsmobility posy ETV
vector 217 RSUExampleScenario.node[43].veinsmobility speed ETV
vector 218 RSUExampleScenario.node[43].veinsmobility acceleration ETV
vector 219 RSUExampleScenario.node[43].veinsmobility co2emission ETV
vector 220 RSUExampleScenario.node[44].veinsmobility posx ETV
vector 221 RSUExampleScenario.node[44].veinsmobility posy ETV
vector 222 RSUExampleScenario.node[44].veinsmobility speed ETV
vector 223 RSUExampleScenario.node[44].veinsmobility acceleration ETV
vector 224 RSUExampleScenario.node[44].veinsmobility co2emission ETV
vector 225 RSUExampleScenario.node[45].veinsmobility posx ETV
vector 226 RSUExampleScenario.node[45].veinsmobility posy ETV
vector 227 RSUExampleScenario.node[45].veinsmobility speed ETV
vector 228 RSUExampleScenario.node[45].veinsmobility acceleration ETV
vector 229 RSUExampleScenario.node[45].veinsmobility co2emission ETV
vector 230 RSUExampleScenario.node[46].veinsmobility posx ETV
vector 231 RSUExampleScenario.node[46].veinsmobility posy ETV
vector 232 RSUExampleScenario.node[46].veinsmobility speed ETV
vector 233 RSUExampleScenario.node[46].veinsmobility acceleration ETV
vector 234 RSUExampleScenario.node[46].veinsmobility co2emission ETV
vector 235 RSUExampleScenario.node[47].veinsmobility posx ETV
vector 236 RSUExampleScenario.node[47].veinsmobility posy ETV
vector 237 RSUExampleScenario.node[47].veinsmobility speed ETV
vector 238 RSUExampleScenario.node[47].veinsmobility acceleration ETV
vector 239 RSUExampleScenario.node[47].veinsmobility co2emission ETV
vector 240 RSUExampleScenario.node[48].veinsmobility posx ETV
vector 241 RSUExampleScenario.node[48].veinsmobility posy ETV
vector 242 RSUExampleScenario.node[48].veinsmobility speed ETV
vector 243 RSUExampleScenario.node[48].veinsmobility acceleration ETV
vector 244 RSUExampleScenario.node[48].veinsmobility co2emission ETV
vector 245 RSUExampleScenario.node[49].veinsmobility posx ETV
vector 246 RSUExampleScenario.node[49].veinsmobility posy ETV
vector 247 RSUExampleScenario.node[49].veinsmobility speed ETV
vector 248 RSUExampleScenario.node[49].veinsmobility acceleration ETV
vector 249 RSUExampleScenario.node[49].veinsmobility co2emission ETV
vector 250 RSUExampleScenario.node[50].veinsmobility posx ETV
vector 251 RSUExampleScenario.node[50].veinsmobility posy ETV
vector 252 RSUExampleScenario.node[50].veinsmobility speed ETV
vector 253 RSUExampleScenario.node[50].veinsmobility acceleration ETV
vector 254 RSUExampleScenario.node[50].veinsmobility co2emission ETV
vector 255 RSUExampleScenario.node[51].veinsmobility posx ETV
vector 256 RSUExampleScenario.node[51].veinsmobility posy ETV
vector 257 RSUExampleScenario.node[51].veinsmobility speed ETV
vector 258 RSUExampleScenario.node[51].veinsmobility acceleration ETV
vector 259 RSUExampleScenario.node[51].veinsmobility co2emission ETV
vector 260 RSUExampleScenario.node[52].veinsmobility posx ETV
vector 261 RSUExampleScenario.node[52].veinsmobility posy ETV
vector 262 RSUExampleScenario.node[52].veinsmobility speed ETV
vector 263 RSUExampleScenario.node[52].veinsmobility acceleration ETV
vector 264 RSUExampleScenario.node[52].veinsmobility co2emission ETV
vector 265 RSUExampleScenario.node[53].veinsmobility posx ETV
vector 266 RSUExampleScenario.node[53].veinsmobility posy ETV
vector 267 RSUExampleScenario.node[53].veinsmobility speed ETV
vector 268 RSUExampleScenario.node[53].veinsmobility acceleration ETV
vector 269 RSUExampleScenario.node[53].veinsmobility co2emission ETV
vector 270 RSUExampleScenario.node[54].veinsmobility posx ETV
vector 271 RSUExampleScenario.node[54].veinsmobility posy ETV
vector 272 RSUExampleScenario.node[54].veinsmobility speed ETV
vector 273 RSUExampleScenario.node[54].veinsmobility acceleration ETV
vector 274 RSUExampleScenario.node[54].veinsmobility co2emission ETV
vector 275 RSUExampleScenario.node[55].veinsmobility posx ETV
vector 276 RSUExampleScenario.node[55].veinsmobility posy ETV
vector 277 RSUExampleScenario.node[55].veinsmobility speed ETV
vector 278 RSUExampleScenario.node[55].veinsmobility acceleration ETV
vector 279 RSUExampleScenario.node[55].veinsmobility co2emission ETV
vector 280 RSUExampleScenario.node[56].veinsmobility posx ETV
vector 281 RSUExampleScenario.node[56].veinsmobility posy ETV
vector 282 RSUExampleScenario.node[56].veinsmobility speed ETV
vector 283 RSUExampleScenario.node[56].veinsmobility acceleration ETV
vector 284 RSUExampleScenario.node[56].veinsmobility co2emission ETV
vector 285 RSUExampleScenario.node[57].veinsmobility posx ETV
vector 286 RSUExampleScenario.node[57].veinsmobility posy ETV
vector 287 RSUExampleScenario.node[57].veinsmobility speed ETV
vector 288 RSUExampleScenario.node[57].veinsmobility acceleration ETV
vector 289 RSUExampleScenario.node[57].veinsmobility co2emission ETV
vector 290 RSUExampleScenario.node[58].veinsmobility posx ETV
vector 291 RSUExampleScenario.node[58].veinsmobility posy ETV
vector 292 RSUExampleScenario.node[58].veinsmobility speed ETV
vector 293 RSUExampleScenario.node[58].veinsmobility acceleration ETV
vector 294 RSUExampleScenario.node[58].veinsmobility co2emission ETV
vector 295 RSUExampleScenario.node[59].veinsmobility posx ETV
vector 296 RSUExampleScenario.node[59].veinsmobility posy ETV
vector 297 RSUExampleScenario.node[59].veinsmobility speed ETV
vector 298 RSUExampleScenario.node[59].veinsmobility acceleration ETV
vector 299 RSUExampleScenario.node[59].veinsmobility co2emission ETV
vector 300 RSUExampleScenario.node[60].veinsmobility posx ETV
vector 301 RSUExampleScenario.node[60].veinsmobility posy ETV
vector 302 RSUExampleScenario.node[60].veinsmobility speed ETV
vector 303 RSUExampleScenario.node[60].veinsmobility acceleration ETV
vector 304 RSUExampleScenario.node[60].veinsmobility co2emission ETV
vector 305 RSUExampleScenario.node[61].veinsmobility posx ETV
vector 306 RSUExampleScenario.node[61].veinsmobility posy ETV
vector 307 RSUExampleScenario.node[61].veinsmobility speed ETV
vector 308 RSUExampleScenario.node[61].veinsmobility acceleration ETV
vector 309 RSUExampleScenario.node[61].veinsmobility co2emission ETV
vector 310 RSUExampleScenario.node[62].veinsmobility posx ETV
vector 311 RSUExampleScenario.node[62].veinsmobility posy ETV
vector 312 RSUExampleScenario.node[62].veinsmobility speed ETV
vector 313 RSUExampleScenario.node[62].veinsmobility acceleration ETV
vector 314 RSUExampleScenario.node[62].veinsmobility co2emission ETV
vector 315 RSUExampleScenario.node[63].veinsmobility posx ETV
vector 316 RSUExampleScenario.node[63].veinsmobility posy ETV
vector 317 RSUExampleScenario.node[63].veinsmobility speed ETV
vector 318 RSUExampleScenario.node[63].veinsmobility acceleration ETV
vector 319 RSUExampleScenario.node[63].veinsmobility co2emission ETV
vector 320 RSUExampleScenario.node[64].veinsmobility posx ETV
vector 321 RSUExampleScenario.node[64].veinsmobility posy ETV
vector 322 RSUExampleScenario.node[64].veinsmobility speed ETV
vector 323 RSUExampleScenario.node[64].veinsmobility acceleration ETV
vector 324 RSUExampleScenario.node[64].veinsmobility co2emission ETV
vector 325 RSUExampleScenario.node[65].veinsmobility posx ETV
vector 326 RSUExampleScenario.node[65].veinsmobility posy ETV
vector 327 RSUExampleScenario.node[65].veinsmobility speed ETV
vector 328 RSUExampleScenario.node[65].veinsmobility acceleration ETV
vector 329 RSUExampleScenario.node[65].veinsmobility co2emission ETV
vector 330 RSUExampleScenario.node[66].veinsmobility posx ETV
vector 331 RSUExampleScenario.node[66].veinsmobility posy ETV
vector 332 RSUExampleScenario.node[66].veinsmobility speed ETV
0	2	1	2414.8476884116
0	3	2	2411.8243290941
0	4	3	2407.1592244543
0	5	4	2402.288200066
0	6	5	2396.1394374635
0	7	6	2388.6993875942
0	8	7	2379.889221533
0	9	8	2370.1207192459
0	10	9	2360.3141803208
0	11	10	2350.5099475634
0	12	11	2341.0010868867
0	13	12	2334.5620136983
0	14	13	2337.6803779466
0	15	14	2348.3497968862
0	16	15	2358.6961674725
0	17	16	2371.6616533546
0	18	17	2385.4706804305
0	19	18	2399.3588350668
0	20	19	2412.4541998667
0	21	20	2421.4418196582
0	22	21	2428.417609864
0	23	22	2431.468930052
0	24	23	2433.1513403206
0	25	24	2435.1237040944
0	26	25	2437.2173147583
0	27	26	2438.6437980286
0	28	27	2439.5074353185
0	29	28	2440.517813261
0	30	29	2441.5286354903
0	31	30	2442.5392864447
0	32	31	2443.5505626462
0	33	32	2444.5611125134
0	34	33	2445.5724211388
0	35	34	2446.5834693939
0	36	35	2447.5934051003
0	37	36	2448.6036931522
0	38	37	2449.6148620235
0	39	38	2450.6248001783
0	40	39	2449.5880553933
0	41	40	2448.4757357414
0	42	41	2447.3635385588
0	43	42	2446.250303259
0	44	43	2445.1365203297
0	45	44	2444.0235521834
0	46	45	2442.9111769209
0	47	46	2441.7982721732
0	48	47	2440.6856421625
0	49	48	2439.7151308154
0	50	49	2438.7725309408
0	51	50	2437.9056889905
0	52	51	2432.8785054281
0	53	52	2422.5273191113
0	54	53	2409.439604845
0	55	54	2395.517893619
0	56	55	2381.592286239
0	57	56	2367.6659531716
0	58	57	2353.7601239877
0	59	58	2339.8337569573
0	60	59	2325.9069679289
0	61	60	2311.9542202253
0	62	61	2298.0325140053
0	63	62	2284.0857072632
0	64	63	2270.1754193477
0	65	64	2256.2378749268
0	66	65	2242.3725172955
0	67	66	2228.5623045168
0	68	67	2214.8068758136
0	69	68	2201.6159272967
0	70	69	2188.41049514
0	71	70	2175.4595331684
0	72	71	2163.4460695032
0	73	72	2152.2029822947
0	74	73	2144.5427125699
0	76	74	2140.7603855053
0	77	75	2140.3234504706
0	78	76	2140.3234504706
0	79	77	2140.3234504706
0	80	78	2140.3234504706
0	81	79	2140.3234504706
0	82	80	2140.3234504706
0	83	81	2140.3234504706
0	84	82	2140.3234504706
0	85	83	2140.3234504706
0	86	84	2140.3234504706
0	203	85	2140.3234504706
0	204	86	2140.3234504706
0	2052	87	2140.3234504706
0	2053	88	2140.3234504706
0	5400	89	2140.3234504706
0	5401	90	2140.3234504706
0	6030	91	2140.3234504706
0	6031	92	2140.3234504706
0	6032	93	2140.3234504706
0	6033	94	2140.3234504706
0	6034	95	2140.3234504706
0	6035	96	2140.3234504706
0	6036	97	2140.3234504706
0	6037	98	2140.3234504706
0	6038	99	2140.3234504706
0	6039	100	2140.3234504706
0	6040	101	2140.3234504706
0	6041	102	2140.3234504706
0	6042	103	2140.3234504706
0	6044	104	2140.3234504706
0	6045	105	2140.3234504706
0	6046	106	2140.3234504706
0	6047	107	2140.3234504706
0	6048	108	2140.3234504706
0	6049	109	2140.3234504706
0	6050	110	2140.3234504706
0	6051	111	2140.3234504706
0	6052	112	2140.3234504706
0	6053	113	2140.3234504706
0	6054	114	2140.3234504706
0	6055	115	2140.3234504706
0	6056	116	2140.3234504706
0	6057	117	2140.3234504706
0	6058	118	2140.3234504706
0	6059	119	2140.3234504706
0	6060	120	2140.3234504706
0	6061	121	2140.3234504706
0	6062	122	2140.3234504706
0	6063	123	2140.3234504706
0	6065	124	2139.2991757134
0	6066	125	2136.740978117
0	6067	126	2133.0437330272
0	6068	127	2128.0124995244
0	6069	128	2121.6776393328
0	6070	129	2113.9053156064
0	6071	130	2104.7718132839
0	6072	131	2095.2426245916
0	6073	132	2085.7055441276
0	6074	133	2076.184415311
0	6076	134	2066.655969861
0	6077	135	2057.1336877497
0	6078	136	2047.5928952894
0	6079	137	2037.6052178263
0	6080	138	2027.631729265
0	6081	139	2017.6146613889
0	6082	140	2007.6105792237
0	6083	141	1997.6002182011
0	6084	142	1987.6009788642
0	6085	143	1977.6126411132
0	6086	144	1967.6241748743
0	6087	145	1957.6315686307
0	6088	146	1947.6459181812
0	6089	147	1937.6582154317
0	6090	148	1927.928336862
0	6091	149	1918.2020256331
0	6092	150	1908.4694342383
0	6093	151	1898.729315949
0	6094	152	1889.0051916379
0	6095	153	1879.261754136
0	6097	154	1869.5281309806
0	6098	155	1859.7936109763
0	6099	156	1850.060784751
0	6100	157	1840.3252135735
0	6101	158	1830.3508783798
0	6102	159	1820.2469987283
0	6103	160	1810.1380447441
0	6104	161	1800.1588395836
0	6105	162	1790.1967647249
0	6106	163	1780.2514425659
0	6108	164	1770.2963918832
0	6109	165	1760.3474435109
0	6110	166	1750.3920021198
0	6111	167	1740.4321024349
0	6112	168	1730.4736489538
0	6113	169	1720.5248935258
0	6114	170	1710.5761599386
0	6115	171	1700.6158889014
0	6116	172	1690.6676647231
0	6117	173	1680.7271906608
0	6118	174	1670.7628719405
0	6339	175	1660.8197170426
0	6340	176	1650.8730225366
0	9309	177	1640.9069306322
0	9310	178	1630.9622310679
0	14451	179	1621.0131410429
0	14452	180	1611.2234621063
0	15436	181	1601.4105973039
0	15437	182	1591.5875026872
0	15913	183	1581.773858707
0	15915	184	1571.9569451315
0	15916	185	1562.134478421
0	15917	186	1551.7112002999
0	15918	187	1541.175700404
0	15919	188	1530.6188701534
0	15920	189	1520.0613357038
0	15921	190	1509.5105544658
0	15922	191	1498.4885757907
0	15923	192	1487.0678394384
0	15924	193	1475.6648106688
0	15926	194	1464.2628301153
0	15927	195	1452.8377002759
0	15928	196	1440.6556722911
0	15929	197	1428.0474191858
0	15930	198	1415.4089725766
0	15931	199	1402.7771531333
0	15932	200	1389.5143186213
1	2	1	1578.4613427464
1	3	2	1579.5715045081
1	4	3	1581.5561876604
1	5	4	1586.4898643075
1	6	5	1592.7177137369
1	7	6	1600.2534592729
1	8	7	1609.1769437566
1	9	8	1619.0710908128
1	10	9	1629.0037637418
1	11	10	1638.9341008412
1	12	11	1649.1129276818
1	13	12	1661.0453354148
1	14	13	1673.5713017788
1	15	14	1682.4825292248
1	16	15	1691.8131453674
1	17	16	1695.5671389326
1	18	17	1697.3762977775
1	19	18	1698.7149431584
1	20	19	1699.9531973498
1	21	20	1700.8030368192
1	22	21	1701.4822415169
1	23	22	1709.488976148
1	24	23	1720.5600911779
1	25	24	1733.5392477075
1	26	25	1747.3162704222
1	27	26	1761.1584832035
1	28	27	1775.0702432813
1	29	28	1788.9649324082
1	30	29	1802.8657313576
1	31	30	1816.7641749373
1	32	31	1830.6712168986
1	33	32	1844.5682703312
1	34	33	1858.4757581847
1	35	34	1872.3796654344
1	36	35	1886.2682729438
1	37	36	1900.1617258992
1	38	37	1914.0672918586
1	39	38	1927.95593304
1	40	39	1941.8192613758
1	41	40	1955.7024557721
1	42	41	1969.5841215905
1	43	42	1983.4787444612
1	44	43	1997.3802024601
1	45	44	2011.2714909082
1	46	45	2025.1553793969
1	47	46	2039.0458765477
1	48	47	2052.9329446238
1	49	48	2066.8462265795
1	50	49	2080.7728807703
1	51	50	2094.6498483503
1	52	51	2107.3969092406
1	53	52	2116.410831539
1	54	53	2120.9360540062
1	55	54	2120.5048353085
1	56	55	2120.0344859883
1	57	56	2119.5641121576
1	58	57	2119.0944308629
1	59	58	2118.6240558857
1	60	59	2118.1536666537
1	61	60	2117.6824006466
1	62	61	2117.2121830918
1	63	62	2116.7411177447
1	64	63	2116.2712858524
1	65	64	2115.8005333487
1	66	65	2114.7955725584
1	67	66	2112.8371776454
1	68	67	2110.6451732265
1	69	68	2106.1714176713
1	70	69	2101.6927499389
1	71	70	2096.6090699211
1	72	71	2089.5369335469
1	73	72	2082.9183056299
1	74	73	2078.4088257942
1	76	74	2076.1822295729
1	77	75	2075.9250128167
1	78	76	2075.9250128167
1	79	77	2075.9250128167
1	80	78	2075.9250128167
1	81	79	2075.9250128167
1	82	80	2075.9250128167
1	83	81	2075.9250128167
1	84	82	2075.9250128167
1	85	83	2075.9250128167
1	86	84	2075.9250128167
1	203	85	2075.9250128167
1	204	86	2075.9250128167
1	2052	87	2075.9250128167
1	2053	88	2075.9250128167
1	5400	89	2075.9250128167
1	5401	90	2075.9250128167
1	6030	91	2075.9250128167
1	6031	92	2075.9250128167
1	6032	93	2075.9250128167
1	6033	94	2075.9250128167
1	6034	95	2075.9250128167
1	6035	96	2075.9250128167
1	6036	97	2075.9250128167
1	6037	98	2075.9250128167
1	6038	99	2075.9250128167
1	6039	100	2075.9250128167
1	6040	101	2075.9250128167
1	6041	102	2075.9250128167
1	6042	103	2075.9250128167
1	6044	104	2075.9250128167
1	6045	105	2075.9250128167
1	6046	106	2075.9250128167
1	6047	107	2075.9250128167
1	6048	108	2075.9250128167
1	6049	109	2075.9250128167
1	6050	110	2075.9250128167
1	6051	111	2075.9250128167
1	6052	112	2075.9250128167
1	6053	113	2075.9250128167
1	6054	114	2075.9250128167
1	6055	115	2075.9250128167
1	6056	116	2075.9250128167
1	6057	117	2075.9250128167
1	6058	118	2075.9250128167
1	6059	119	2075.9250128167
1	6060	120	2075.9250128167
1	6061	121	2075.9250128167
1	6062	122	2075.9250128167
1	6063	123	2075.9250128167
1	6065	124	2075.1267298609
1	6066	125	2072.866368236
1	6067	126	2068.9195549712
1	6068	127	2063.5487075839
1	6069	128	2056.7862372501
1	6070	129	2048.4892729856
1	6071	130	2038.7392490497
1	6072	131	2028.5668294709
1	6073	132	2018.3859854173
1	6074	133	2008.2221697653
1	6076	134	1998.0505435988
1	6077	135	1987.8854968026
1	6078	136	1977.7462070258
1	6079	137	1968.037196531
1	6080	138	1958.3419790519
1	6081	139	1948.6043981677
1	6082	140	1938.8794406792
1	6083	141	1929.1483795205
1	6084	142	1919.4281297401
1	6085	143	1909.7184773795
1	6086	144	1900.0087001156
1	6087	145	1890.2948983582
1	6088	146	1880.5878583211
1	6089	147	1870.8776764767
1	6090	148	1860.9070784971
1	6091	149	1850.9401361141
1	6092	150	1840.9667581934
1	6093	151	1830.9856671607
1	6094	152	1821.0209658006
1	6095	153	1811.0364734372
1	6097	154	1801.0620382298
1	6098	155	1791.0866839848
1	6099	156	1781.1130654234
1	6100	157	1771.1366339987
1	6101	158	1761.3864351111
1	6102	159	1751.7903250856
1	6103	160	1742.1893957369
1	6104	161	1732.4389499296
1	6105	162	1722.675991795
1	6106	163	1712.9294515159
1	6108	164	1703.1733771618
1	6109	165	1693.4232831486
1	6110	166	1683.6668258961
1	6111	167	1673.9059994593
1	6112	168	1664.1465903204
1	6113	169	1654.3966853945
1	6114	170	1644.6468018731
1	6115	171	1634.8856115062
1	6116	172	1625.1362272119
1	6117	173	1615.3944381289
1	6118	174	1605.6292809825
1	6339	175	1595.884864646
1	6340	176	1586.1369794505
1	9309	177	1576.3700845605
1	9310	178	1566.6241544327
1	14451	179	1556.8739215974
1	14452	180	1547.1035578614
1	15436	181	1537.1979243793
1	15437	182	1527.2819643728
1	15913	183	1517.3755443469
1	15915	184	1507.4658238152
1	15916	185	1497.5504976502
1	15917	186	1488.2895413144
1	15918	187	1479.1762772417
1	15919	188	1470.0445622969
1	15920	189	1460.912238217
1	15921	190	1451.7857557014
1	15922	191	1443.2408685256
1	15923	192	1435.1924371999
1	15924	193	1427.1564847762
1	15926	194	1419.1212710524
1	15927	195	1411.0697435439
1	15928	196	1404.3437243653
1	15929	197	1398.3994412022
1	15930	198	1392.4409230193
1	15931	199	1386.4855292775
1	15932	200	1382.138503409
2	3	2	4.1061966058897
2	4	3	6.0195495591482
2	5	4	7.7148368984793
2	6	5	9.5879868385225
2	7	6	11.391389363371
2	8	7	13.513839789145
2	9	8	13.99235115225
2	10	9	13.890224446259
2	11	10	13.976677174468
2	12	11	13.994826577434
2	13	12	13.923680325528
2	14	13	13.923542996629
2	15	14	13.91007151508
2	16	15	13.964598868005
2	17	16	13.995233640105
2	18	17	13.952304350403
2	19	18	13.956911946491
2	20	19	11.503494614513
2	21	20	7.0034946145128
2	22	21	7.8970062485022
2	23	22	10.10483181514
2	24	23	11.990706169653
2	25	24	13.981089308816
2	26	25	13.965594365916
2	27	26	13.989059597438
2	28	27	13.956378436291
2	29	28	13.910982951869
2	30	29	13.88918493646
2	31	30	13.908189346099
2	32	31	13.983992603337
2	33	32	13.971500478752
2	34	33	13.873081948087
2	35	34	13.985133641064
2	36	35	13.886848415199
2	37	36	13.876205747321
2	38	37	13.967912819823
2	39	38	13.871047234884
2	40	39	13.89239756926
2	41	40	13.872267716837
2	42	41	13.999815066161
2	43	42	13.964707984752
2	44	43	13.906584702837
2	45	44	13.922364303169
2	46	45	13.929034490574
2	47	46	13.93922677479
2	48	47	13.924399639922
2	49	48	13.96850544848
2	50	49	13.986686690277
2	51	50	13.935194088209
2	52	51	13.930097484484
2	53	52	13.948393711536
2	54	53	13.882971800906
2	55	54	13.87138918183
2	56	55	13.933780807857
2	57	56	13.942265776542
2	58	57	13.95140511482
2	59	58	13.886548467774
2	60	59	13.920721456567
2	61	60	13.906796863726
2	62	61	13.917803910668
2	63	62	13.924582225601
2	64	63	13.959688465288
2	65	64	13.957318032989
2	66	65	13.940553226951
2	67	66	13.879855337965
2	68	67	13.977758804618
2	69	68	13.914176650653
2	70	69	13.928041475909
2	71	70	13.977535404016
2	72	71	13.928572678084
2	73	72	11.364046791626
2	74	73	6.8640467916256
2	76	74	2.3640467916256
2	77	75	0
2	78	76	0
2	79	77	0
2	80	78	0
2	81	79	0
2	82	80	0
2	83	81	0
2	84	82	0
2	85	83	0
2	86	84	0
2	203	85	0
2	204	86	0
2	2052	87	0
2	2053	88	0
2	5400	89	0
2	5401	90	0
2	6030	91	0
2	6031	92	0
2	6032	93	0
2	6033	94	0
2	6034	95	0
2	6035	96	0
2	6036	97	0
2	6037	98	0
2	6038	99	0
2	6039	100	0
2	6040	101	0
2	6041	102	0
2	6042	103	0
2	6044	104	0
2	6045	105	0
2	6046	106	0
2	6047	107	0
2	6048	108	0
2	6049	109	0
2	6050	110	0
2	6051	111	0
2	6052	112	0
2	6053	113	0
2	6054	114	0
2	6055	115	0
2	6056	116	0
2	6057	117	0
2	6058	118	0
2	6059	119	0
2	6060	120	0
2	6061	121	0
2	6062	122	0
2	6063	123	0
2	6065	124	2.2219942613752
2	6066	125	4.3816652589273
2	6067	126	6.271098397682
2	6068	127	8.1846742143464
2	6069	128	10.238758130733
2	6070	129	12.368734642219
2	6071	130	13.962109271805
2	6072	131	13.914205637665
2	6073	132	13.944517719341
2	6074	133	13.932432430719
2	6076	134	13.953789253703
2	6077	135	13.898576378347
2	6078	136	13.923362842468
2	6079	137	13.87346287617
2	6080	138	13.915164393331
2	6081	139	13.962726174931
2	6082	140	13.991457488488
2	6083	141	13.93669091891
2	6084	142	13.946966261289
2	6085	143	13.874023362922
2	6086	144	13.888220233922
2	6087	145	13.910431938935
2	6088	146	13.915207219925
2	6089	147	13.934733790359
2	6090	148	13.947823643878
2	6091	149	13.938765405121
2	6092	150	13.884018056742
2	6093	151	13.98566509519
2	6094	152	13.928810386665
2	6095	153	13.878287675793
2	6097	154	13.960782518599
2	6098	155	13.994947284004
2	6099	156	13.975011026422
2	6100	157	13.946519697749
2	6101	158	13.954196195363
2	6102	159	13.908575135735
2	6103	160	13.893555851928
2	6104	161	13.925646835428
2	6105	162	13.956856088985
2	6106	163	13.935565363681
2	6108	164	13.981824356054
2	6109	165	13.960839076294
2	6110	166	13.963425049901
2	6111	167	13.944366896641
2	6112	168	13.993980701885
2	6113	169	13.936356577491
2	6114	170	13.904627814977
2	6115	171	13.901456429872
2	6116	172	13.877600607274
2	6117	173	13.896702704621
2	6118	174	13.881392423632
2	6339	175	13.958875037138
2	6340	176	13.945687377716
2	9309	177	13.966000350199
2	9310	178	13.970536190735
2	14451	179	13.916551416086
2	14452	180	13.93610556707
2	15436	181	13.939164152481
2	15437	182	13.944239728614
2	15913	183	13.908562719475
2	15915	184	13.872485791091
2	15916	185	13.99865511379
2	15917	186	13.92553616784
2	15918	187	13.916018098511
2	15919	188	13.981679034531
2	15920	189	13.988185767711
2	15921	190	13.923184596703
2	15922	191	13.883733638397
2	15923	192	13.892227361612
2	15924	193	13.876141575957
2	15926	194	13.950034722143
2	15927	195	13.883154610386
2	15928	196	13.946562061303
2	15929	197	13.880639836157
2	15930	198	13.967846674775
2	15931	199	13.891077681468
2	15932	200	13.880399412508
3	4	3	1.9133529532584
3	5	4	1.6952873393311
3	6	5	1.8731499400432
3	7	6	1.8034025248489
3	8	7	2.1224504257739
3	9	8	0.47851136310433
3	10	9	-0.1021267059911
3	11	10	0.086452728209551
3	12	11	0.018149402965792
3	13	12	-0.071146251906175
3	14	13	-0.0001373288989992
3	15	14	-0.013471481548622
3	16	15	0.054527352924923
3	17	16	0.03063477210002
3	18	17	-0.04292928970186
3	19	18	0.0046075960877356
3	20	19	-2.4534173319781
3	21	20	-4.5
3	22	21	0.8935116339894
3	23	22	2.2078255666373
3	24	23	1.8858743545134
3	25	24	1.9903831391631
3	26	25	-0.01549494290026
3	27	26	0.023465231521987
3	28	27	-0.032681161146611
3	29	28	-0.045395484422334
3	30	29	-0.021798015409148
3	31	30	0.019004409639164
3	32	31	0.075803257238585
3	33	32	-0.012492124584968
3	34	33	-0.098418530665803
3	35	34	0.11205169297755
3	36	35	-0.098285225864965
3	37	36	-0.01064266787842
3	38	37	0.091707072502468
3	39	38	-0.096865584938786
3	40	39	0.021350334375166
3	41	40	-0.020129852422979
3	42	41	0.12754734932445
3	43	42	-0.035107081409079
3	44	43	-0.058123281914741
3	45	44	0.015779600332026
3	46	45	0.0066701874043797
3	47	46	0.010192284216172
3	48	47	-0.014827134867664
3	49	48	0.044105808557942
3	50	49	0.018181241797283
3	51	50	-0.051492602068466
3	52	51	-0.0050966037251055
3	53	52	0.018296227052343
3	54	53	-0.065421910630539
3	55	54	-0.011582619075197
3	56	55	0.062391626026946
3	57	56	0.0084849686850799
3	58	57	0.0091393382777465
3	59	58	-0.064856647045817
3	60	59	0.034172988792415
3	61	60	-0.013924592840485
3	62	61	0.011007046941668
3	63	62	0.0067783149331806
3	64	63	0.035106239686721
3	65	64	-0.0023704322986315
3	66	65	-0.016764806038699
3	67	66	-0.060697888985743
3	68	67	0.097903466653079
3	69	68	-0.063582153965253
3	70	69	0.013864825256169
3	71	70	0.049493928106967
3	72	71	-0.048962725931778
3	73	72	-2.5645258864584
3	74	73	-4.5
3	76	74	-4.5
3	77	75	-2.3640467916256
3	78	76	0
3	79	77	0
3	80	78	0
3	81	79	0
3	82	80	0
3	83	81	0
3	84	82	0
3	85	83	0
3	86	84	0
3	203	85	0
3	204	86	0
3	2052	87	0
3	2053	88	0
3	5400	89	0
3	5401	90	0
3	6030	91	0
3	6031	92	0
3	6032	93	0
3	6033	94	0
3	6034	95	0
3	6035	96	0
3	6036	97	0
3	6037	98	0
3	6038	99	0
3	6039	100	0
3	6040	101	0
3	6041	102	0
3	6042	103	0
3	6044	104	0
3	6045	105	0
3	6046	106	0
3	6047	107	0
3	6048	108	0
3	6049	109	0
3	6050	110	0
3	6051	111	0
3	6052	112	0
3	6053	113	0
3	6054	114	0
3	6055	115	0
3	6056	116	0
3	6057	117	0
3	6058	118	0
3	6059	119	0
3	6060	120	0
3	6061	121	0
3	6062	122	0
3	6063	123	0
3	6065	124	2.2219942613752
3	6066	125	2.1596709975521
3	6067	126	1.8894331387547
3	6068	127	1.9135758166644
3	6069	128	2.0540839163866
3	6070	129	2.1299765114859
3	6071	130	1.593374629586
3	6072	131	-0.047903634139804
3	6073	132	0.030312081675511
3	6074	133	-0.012085288621019
3	6076	134	0.021356822983362
3	6077	135	-0.055212875355501
3	6078	136	0.024786464120261
3	6079	137	-0.049899966297671
3	6080	138	0.041701517160982
3	6081	139	0.047561781599653
3	6082	140	0.028731313557364
3	6083	141	-0.054766569577623
3	6084	142	0.0102753423783
3	6085	143	-0.0729428983666
3	6086	144	0.014196870999875
3	6087	145	0.022211705013179
3	6088	146	0.0047752809897066
3	6089	147	0.019526570434682
3	6090	148	0.013089853518178
3	6091	149	-0.0090582387568432
3	6092	150	-0.054747348378879
3	6093	151	0.10164703844814
3	6094	152	-0.056854708525352
3	6095	153	-0.050522710871883
3	6097	154	0.082494842805898
3	6098	155	0.034164765405004
3	6099	156	-0.019936257582158
3	6100	157	-0.028491328672972
3	6101	158	0.0076764976140122
3	6102	159	-0.045621059627738
3	6103	160	-0.015019283806906
3	6104	161	0.032090983500238
3	6105	162	0.031209253557027
3	6106	163	-0.021290725304279
3	6108	164	0.046258992373478
3	6109	165	-0.020985279760788
3	6110	166	0.0025859736069105
3	6111	167	-0.019058153259103
3	6112	168	0.049613805243279
3	6113	169	-0.057624124393332
3	6114	170	-0.031728762513959
3	6115	171	-0.0031713851052331
3	6116	172	-0.023855822598561
3	6117	173	0.019102097346913
3	6118	174	-0.015310280988924
3	6339	175	0.077482613506726
3	6340	176	-0.013187659422401
3	9309	177	0.020312972483225
3	9310	178	0.0045358405355369
3	14451	179	-0.053984774649143
3	14452	180	0.019554150984622
3	15436	181	0.0030585854104732
3	15437	182	0.0050755761330947
3	15913	183	-0.035677009138745
3	15915	184	-0.036076928384137
3	15916	185	0.12616932269884
3	15917	186	-0.073118945949245
3	15918	187	-0.0095180693292054
3	15919	188	0.065660936019849
3	15920	189	0.0065067331795579
3	15921	190	-0.065001171007752
3	15922	191	-0.03945095830597
3	15923	192	0.0084937232150697
3	15924	193	-0.016085785655305
3	15926	194	0.073893146186601
3	15927	195	-0.0668801117572
3	15928	196	0.063407450916712
3	15929	197	-0.065922225145624
3	15930	198	0.087206838617567
3	15931	199	-0.076768993306905
3	15932	200	-0.010678268959746
4	4	3	4.1962556146115
4	5	4	4.6765885426193
4	6	5	5.9822455727343
4	7	6	6.7469998477461
4	8	7	8.9023657158011
4	9	8	3.651678681686
4	10	9	1.6857621818206
4	11	10	2.3276633668785
4	12	11	2.0995306276608
4	13	12	1.7923040941768
4	14	13	2.0305681317735
4	15	14	1.9844951865828
4	16	15	2.2187318873595
4	17	16	2.1416854339172
4	18	17	1.8896148890835
4	19	18	2.0499339673421
4	20	19	0.973
4	21	20	0.973
4	22	21	3.236958348016
4	23	22	7.0694109561587
4	24	23	7.2974163894139
4	25	24	8.7433911631671
4	26	25	1.9831721788576
4	27	26	2.116835898497
4	28	27	1.9244585801898
4	29	28	1.8775583559564
4	30	29	1.9545657515643
4	31	30	2.0931646705581
4	32	31	2.2926746988581
4	33	32	1.993865292131
4	34	33	1.6968396252803
4	35	34	2.4149847823944
4	36	35	1.6983583398882
4	37	36	1.9906198998388
4	38	37	2.3442713071536
4	39	38	1.7018725964397
4	40	39	2.0993392475273
4	41	40	1.9585122345881
4	42	41	2.4691677522194
4	43	42	1.9170802753567
4	44	43	1.8345014514108
4	45	44	2.0838538984303
4	46	45	2.0539801513469
4	47	46	2.0668686152862
4	48	47	1.9813596940184
4	49	48	2.1840996762636
4	50	49	2.0987681125428
4	51	50	1.8592856847688
4	52	51	2.0145873760113
4	53	52	2.0950692067684
4	54	53	1.8080099866508
4	55	54	1.9870007069688
4	56	55	2.2415869227426
4	57	56	2.0614496349521
4	58	57	2.0646020593826
4	59	58	1.8102089718445
4	60	59	2.1453880261281
4	61	60	1.9826536733129
4	62	61	2.0673636130683
4	63	62	2.0538817544551
4	64	63	2.1528270365066
4	65	64	2.0265038417738
4	66	65	1.9764402783138
4	67	66	1.823544423566
4	68	67	2.3663700564531
4	69	68	1.816863137639
4	70	69	2.0780272006119
4	71	70	2.2032702170206
4	72	71	1.8671845150559
4	73	72	0.973
4	74	73	0.973
4	76	74	0.973
4	77	75	0.973
4	78	76	0.973
4	79	77	0.973
4	80	78	0.973
4	81	79	0.973
4	82	80	0.973
4	83	81	0.973
4	84	82	0.973
4	85	83	0.973
4	86	84	0.973
4	203	85	0.973
4	204	86	0.973
4	2052	87	0.973
4	2053	88	0.973
4	5400	89	0.973
4	5401	90	0.973
4	6030	91	0.973
4	6031	92	0.973
4	6032	93	0.973
4	6033	94	0.973
4	6034	95	0.973
4	6035	96	0.973
4	6036	97	0.973
4	6037	98	0.973
4	6038	99	0.973
4	6039	100	0.973
4	6040	101	0.973
4	6041	102	0.973
4	6042	103	0.973
4	6044	104	0.973
4	6045	105	0.973
4	6046	106	0.973
4	6047	107	0.973
4	6048	108	0.973
4	6049	109	0.973
4	6050	110	0.973
4	6051	111	0.973
4	6052	112	0.973
4	6053	113	0.973
4	6054	114	0.973
4	6055	115	0.973
4	6056	116	0.973
4	6057	117	0.973
4	6058	118	0.973
4	6059	119	0.973
4	6060	120	0.973
4	6061	121	0.973
4	6062	122	0.973
4	6063	123	0.973
4	6065	124	2.4080817491368
4	6066	125	3.6097150181135
4	6067	126	4.2908662920557
4	6068	127	5.3300190940896
4	6069	128	6.7716083595646
4	6070	129	8.2306431470796
4	6071	130	7.3964630212997
4	6072	131	1.8694407969886
4	6073	132	2.1350370330868
4	6074	133	1.9913567143412
4	6076	134	2.1059366793651
4	6077	135	1.8435469109796
4	6078	136	2.1141823143441
4	6079	137	1.8590913255925
4	6080	138	2.1700231934041
4	6081	139	2.1950764783891
4	6082	140	2.1348521217125
4	6083	141	1.848423466467
4	6084	142	2.0679571445659
4	6085	143	1.7820942605596
4	6086	144	2.0749497938408
4	6087	145	2.1041555485124
4	6088	146	2.0461934569666
4	6089	147	2.0977460374518
4	6090	148	2.0775076200446
4	6091	149	2.0021532082224
4	6092	150	1.8438174528787
4	6093	151	2.3799842198344
4	6094	152	1.8407138090759
4	6095	153	1.8574406286347
4	6097	154	2.3123894181885
4	6098	155	2.1535598612525
4	6099	156	1.9691423592976
4	6100	157	1.9376113298153
4	6101	158	2.0599739597323
4	6102	159	1.8765833152484
4	6103	160	1.9776849407054
4	6104	161	2.1389434248576
4	6105	162	2.1394055920097
4	6106	163	1.9607511040502
4	6108	164	2.1928600666225
4	6109	165	1.9642310153012
4	6110	166	2.0438040308735
4	6111	167	1.9691072905981
4	6112	168	2.2055554619791
4	6113	169	1.8387961934292
4	6114	170	1.922778033881
4	6115	171	2.0181537909243
4	6116	172	1.9465666317606
4	6117	173	2.0922698365702
4	6118	174	1.9755185732893
4	6339	175	2.2952948749659
4	6340	176	1.9889662956578
4	9309	177	2.1037346918995
4	9310	178	2.0511009581671
4	14451	179	1.8492572903835
4	14452	180	2.0979851268675
4	15436	181	2.0428975590011
4	15437	182	2.0501977758109
4	15913	183	1.9099142825738
4	15915	184	1.9052179611855
4	15916	185	2.4643641249373
4	15917	186	1.7858410554177
4	15918	187	1.9983405517558
4	15919	188	2.2582200545228
4	15920	189	2.0595717264255
4	15921	190	1.8128817885198
4	15922	191	1.8949737034561
4	15923	192	2.0562767784855
4	15924	193	1.9724109415159
4	15926	194	2.2821586246632
4	15927	195	1.8031467798411
4	15928	196	2.2464983260742
4	15929	197	1.8061360510748
4	15930	198	2.3291141609331
4	15931	199	1.7707192427041
4	15932	200	1.9909162058012
5	5	4	2414.8767583254
5	6	5	2411.8725636174
5	7	6	2407.2970525089
5	8	7	2402.4626210862
5	9	8	2396.3056860371
5	10	9	2388.8743536096
5	11	10	2380.097228827
5	12	11	2370.3507264333
5	13	12	2360.5878487076
5	14	13	2350.7849318213
5	15	14	2341.2418729237
5	16	15	2334.6305580324
5	17	16	2337.3467480277
5	18	17	2348.0519014368
5	19	18	2358.3998493504
5	20	19	2371.2788021446
5	21	20	2385.0887639745
5	22	21	2398.4985461925
5	23	22	2411.2485283293
5	24	23	2420.6905829484
5	25	24	2427.6440450998
5	26	25	2431.3031180431
5	27	26	2432.9057471878
5	28	27	2434.8184996871
5	29	28	2436.9106889558
5	30	29	2438.5031214217
5	31	30	2439.359314087
5	32	31	2440.3695716034
5	33	32	2441.3815056744
5	34	33	2442.392207776
5	35	34	2443.4019859718
5	36	35	2444.4122552489
5	37	36	2445.4251439738
5	38	37	2446.4367595227
5	39	38	2447.4467230743
5	40	39	2448.4574488286
5	41	40	2449.467800329
5	42	41	2450.4780716181
5	43	42	2449.7461704329
5	44	43	2448.6331060936
5	45	44	2447.5209445587
5	46	45	2446.407523851
5	47	46	2445.2946584851
5	48	47	2444.1824360332
5	49	48	2443.0706190476
5	50	49	2441.9568028547
5	51	50	2440.8451110823
5	52	51	2439.8503503047
5	53	52	2438.9091742415
5	54	53	2438.2310626655
5	55	54	2433.9050446447
5	56	55	2424.21615465
5	57	56	2411.3460908785
5	58	57	2397.4706148925
5	59	58	2383.5587488873
5	60	59	2369.633660475
5	61	60	2355.7048479554
5	62	61	2341.7904321874
5	63	62	2327.8638711022
5	64	63	2313.9188814831
5	65	64	2299.9979078089
5	66	65	2286.0826278217
5	67	66	2272.1469357561
5	68	67	2258.2076214411
5	69	68	2244.3155730069
5	70	69	2230.5273849192
5	71	70	2216.7446519198
5	72	71	2203.5167182724
5	73	72	2190.3178840362
5	74	73	2177.2322881214
5	76	74	2166.0575198019
5	77	75	2157.6433227622
5	78	76	2151.7978679298
5	79	77	2148.12850579
5	80	78	2146.1504391922
5	81	79	2145.2176430746
5	82	80	2144.8457426265
5	83	81	2144.7095674569
5	84	82	2144.6606226763
5	85	83	2144.6429435182
5	86	84	2144.6366379777
5	203	85	2144.6343920679
5	204	86	2144.6335903119
5	2052	87	2144.6333007435
5	2053	88	2144.633195825
5	5400	89	2144.6331583896
5	5401	90	2144.633145728
5	6030	91	2144.633145728
5	6031	92	2144.633145728
5	6032	93	2144.633145728
5	6033	94	2144.633145728
5	6034	95	2144.633145728
5	6035	96	2144.633145728
5	6036	97	2144.633145728
5	6037	98	2144.633145728
5	6038	99	2144.633145728
5	6039	100	2144.633145728
5	6040	101	2144.633145728
5	6041	102	2144.633145728
5	6042	103	2144.633145728
5	6044	104	2144.633145728
5	6045	105	2144.633145728
5	6046	106	2144.633145728
5	6047	107	2144.633145728
5	6048	108	2144.633145728
5	6049	109	2144.633145728
5	6050	110	2144.633145728
5	6051	111	2144.633145728
5	6052	112	2144.633145728
5	6053	113	2144.633145728
5	6054	114	2144.633145728
5	6055	115	2144.633145728
5	6056	116	2144.633145728
5	6057	117	2144.633145728
5	6058	118	2144.633145728
5	6059	119	2144.633145728
5	6060	120	2144.633145728
5	6061	121	2144.633145728
5	6062	122	2144.633145728
5	6063	123	2144.633145728
5	6065	124	2144.2754340136
5	6066	125	2142.4846802864
5	6067	126	2139.1451827293
5	6068	127	2134.908475054
5	6069	128	2127.149872842
5	6070	129	2120.4387881567
5	6071	130	2112.3739490838
5	6072	131	2103.147663089
5	6073	132	2093.629591034
5	6074	133	2084.0951069517
5	6076	134	2074.579488395
5	6077	135	2065.0639168544
5	6078	136	2055.5512337412
5	6079	137	2046.0342183947
5	6080	138	2036.0487979884
5	6081	139	2026.0452900858
5	6082	140	2016.0563570814
5	6083	141	2006.0729706188
5	6084	142	1996.0847308773
5	6085	143	1986.0883360283
5	6086	144	1976.106136184
5	6087	145	1966.0952727045
5	6088	146	1956.0879377604
5	6089	147	1946.1023564262
5	6090	148	1936.1053083714
5	6091	149	1926.3526811849
5	6092	150	1916.618181454
5	6093	151	1906.8885864745
5	6094	152	1897.1661472071
5	6095	153	1887.4379255387
5	6097	154	1877.7068625629
5	6098	155	1867.9731467689
5	6099	156	1858.2471694911
5	6100	157	1848.516762564
5	6101	158	1838.7884987453
5	6102	159	1828.8682903362
5	6103	160	1818.7674692031
5	6104	161	1808.6556126159
5	6105	162	1798.6881454488
5	6106	163	1788.7282369935
5	6108	164	1778.7716701351
5	6109	165	1768.8148926139
5	6110	166	1758.8629838625
5	6111	167	1748.9223574745
5	6112	168	1738.9917706434
5	6113	169	1729.0392786098
5	6114	170	1719.0915389528
5	6115	171	1709.1409424301
5	6116	172	1699.1952381799
5	6117	173	1689.2380949382
5	6118	174	1679.2882738797
5	6339	175	1669.3451070891
5	6340	176	1659.395775152
5	9309	177	1649.4270165171
5	9310	178	1639.4901366775
5	14451	179	1629.5258021428
5	14452	180	1619.5642357833
5	15436	181	1609.7627247096
5	15437	182	1599.9604399907
5	15913	183	1590.1700976605
5	15915	184	1580.3662023852
5	15916	185	1570.5647547044
5	15917	186	1560.7786372968
5	15918	187	1550.434129402
5	15919	188	1539.9118072168
5	15920	189	1529.3927900881
5	15921	190	1518.8715863216
5	15922	191	1508.3494753712
5	15923	192	1497.4541218153
5	15924	193	1486.0624435559
5	15926	194	1474.6939624506
5	15927	195	1463.3160897251
5	15928	196	1451.9234011091
5	15929	197	1439.8787805256
5	15930	198	1427.305272048
5	15931	199	1414.7230042866
5	15932	200	1402.1630774252
6	5	4	1578.4506684253
6	6	5	1579.5537930429
6	7	6	1581.4165868293
6	8	7	1586.3131998433
6	9	8	1592.5493268352
6	10	9	1600.0762428036
6	11	10	1608.9662610246
6	12	11	1618.8381252186
6	13	12	1628.7265753681
6	14	13	1638.6555796713
6	15	14	1648.8046840783
6	16	15	1660.6325348346
6	17	16	1673.301875555
6	18	17	1682.2138796467
6	19	18	1691.5459182626
6	20	19	1695.5099147679
6	21	20	1697.3308411958
6	22	21	1698.6335971011
6	23	22	1699.8391930545
6	24	23	1700.7320023719
6	25	24	1701.2941834759
6	26	25	1708.3978488175
6	27	26	1718.9439634858
6	28	27	1731.5308475178
6	29	28	1745.2985167308
6	30	29	1759.1189484736
6	31	30	1773.033284259
6	32	31	1786.9263172904
6	33	32	1800.8424062571
6	34	33	1814.7415532097
6	35	34	1828.6279946407
6	36	35	1842.5211894047
6	37	36	1856.4504067414
6	38	37	1870.362115399
6	39	38	1884.2511058366
6	40	39	1898.150578063
6	41	40	1912.0449035605
6	42	41	1925.9381259941
6	43	42	1939.8457802581
6	44	43	1953.7382693188
6	45	44	1967.6194902081
6	46	45	1981.5164272105
6	47	46	1995.4064328251
6	48	47	2009.2884140396
6	49	48	2023.165334505
6	50	49	2037.0672076773
6	51	50	2050.942565321
6	52	51	2064.8483957723
6	53	52	2078.754013543
6	54	53	2092.6537938379
6	55	54	2105.6893007364
6	56	55	2115.3934075218
6	57	56	2120.5034639826
6	58	57	2120.5707901428
6	59	58	2120.100904949
6	60	59	2119.6305731572
6	61	60	2119.160115581
6	62	61	2118.6901442679
6	63	62	2118.2197627351
6	64	63	2117.748758764
6	65	64	2117.2785659507
6	66	65	2116.8085654471
6	67	66	2116.3378755087
6	68	67	2115.8670632252
6	69	68	2115.0711128758
6	70	69	2113.1158412341
6	71	70	2111.1613431666
6	72	71	2106.8160774671
6	73	72	2102.339647443
6	74	73	2097.6526627708
6	76	74	2091.0742531046
6	77	75	2086.1209481629
6	78	76	2082.6798211997
6	79	77	2080.5197256459
6	80	78	2079.3552690716
6	81	79	2078.806146726
6	82	80	2078.5872148043
6	83	81	2078.5070506316
6	84	82	2078.4782376122
6	85	83	2078.4678301709
6	86	84	2078.4641181994
6	203	85	2078.4627960678
6	204	86	2078.4623240866
6	2052	87	2078.4621536219
6	2053	88	2078.4620918585
6	5400	89	2078.4620698206
6	5401	90	2078.4620623672
6	6030	91	2078.4620623672
6	6031	92	2078.4620623672
6	6032	93	2078.4620623672
6	6033	94	2078.4620623672
6	6034	95	2078.4620623672
6	6035	96	2078.4620623672
6	6036	97	2078.4620623672
6	6037	98	2078.4620623672
6	6038	99	2078.4620623672
6	6039	100	2078.4620623672
6	6040	101	2078.4620623672
6	6041	102	2078.4620623672
6	6042	103	2078.4620623672
6	6044	104	2078.4620623672
6	6045	105	2078.4620623672
6	6046	106	2078.4620623672
6	6047	107	2078.4620623672
6	6048	108	2078.4620623672
6	6049	109	2078.4620623672
6	6050	110	2078.4620623672
6	6051	111	2078.4620623672
6	6052	112	2078.4620623672
6	6053	113	2078.4620623672
6	6054	114	2078.4620623672
6	6055	115	2078.4620623672
6	6056	116	2078.4620623672
6	6057	117	2078.4620623672
6	6058	118	2078.4620623672
6	6059	119	2078.4620623672
6	6060	120	2078.4620623672
6	6061	121	2078.4620623672
6	6062	122	2078.4620623672
6	6063	123	2078.4620623672
6	6065	124	2078.2514831284
6	6066	125	2077.1972946841
6	6067	126	2075.0037653139
6	6068	127	2070.9101691684
6	6069	128	2067.4514232809
6	6070	129	2060.2880828883
6	6071	130	2051.6797594661
6	6072	131	2041.8317199564
6	6073	132	2031.6722311098
6	6074	133	2021.4952242402
6	6076	134	2011.3383542318
6	6077	135	2001.1815344077
6	6078	136	1991.0277976608
6	6079	137	1980.8694367334
6	6080	138	1971.1272283681
6	6081	139	1961.4031075193
6	6082	140	1951.6931545082
6	6083	141	1941.9885931304
6	6084	142	1932.2793140197
6	6085	143	1922.5621075649
6	6086	144	1912.8586996645
6	6087	145	1903.1274286723
6	6088	146	1893.3995876675
6	6089	147	1883.6928927181
6	6090	148	1873.9750513006
6	6091	149	1864.0194978677
6	6092	150	1854.0443311147
6	6093	151	1844.0741903735
6	6094	152	1834.1113822553
6	6095	153	1824.142648777
6	6097	154	1814.1710037459
6	6098	155	1804.1966403108
6	6099	156	1794.2302067121
6	6100	157	1784.2592339488
6	6101	158	1774.2904572785
6	6102	159	1764.5302406047
6	6103	160	1754.9388907133
6	6104	161	1745.3370619807
6	6105	162	1735.6222454337
6	6106	163	1725.8613688545
6	6108	164	1716.1037670961
6	6109	165	1706.3459588848
6	6110	166	1696.5929221492
6	6111	167	1686.8509423174
6	6112	168	1677.1188014196
6	6113	169	1667.3651930578
6	6114	170	1657.6162421042
6	6115	171	1647.8644913742
6	6116	172	1638.1175351534
6	6117	173	1628.3593685301
6	6118	174	1618.6083777677
6	6339	175	1608.8639082992
6	6340	176	1599.1133968849
6	9309	177	1589.3438469823
6	9310	178	1579.6055388311
6	14451	179	1569.8403246198
6	14452	180	1560.0778232673
6	15436	181	1550.3210563753
6	15437	182	1540.4261354338
6	15913	183	1530.5432697423
6	15915	184	1520.6467230245
6	15916	185	1510.7526470311
6	15917	186	1500.8740461897
6	15918	187	1491.5384087367
6	15919	188	1482.437612718
6	15920	189	1473.3396752551
6	15921	190	1464.2398465611
6	15922	191	1455.1392332409
6	15923	192	1446.5265005752
6	15924	193	1438.5040472653
6	15926	194	1430.4979302743
6	15927	195	1422.4851993471
6	15928	196	1414.4620345058
6	15929	197	1407.6222093813
6	15930	198	1401.6943069091
6	15931	199	1395.7622747878
6	15932	200	1389.840775501
7	6	5	4.0332649588119
7	7	6	5.8265110515686
7	8	7	7.7852127750962
7	9	8	9.5658873894228
7	10	9	11.450149483434
7	11	10	13.391487500134
7	12	11	13.949883621705
7	13	12	13.87602620427
7	14	13	13.885232782268
7	15	14	13.987373048679
7	16	15	13.890608048609
7	17	16	13.887004709987
7	18	17	13.926980708602
7	19	18	13.89086526999
7	20	19	13.965056618985
7	21	20	13.946692067499
7	22	21	13.097137451398
7	23	22	11.939132677032
7	24	23	7.4783001788439
7	25	24	7.8592269216425
7	26	25	9.5749213322898
7	27	26	11.610942506126
7	28	27	13.581243869506
7	29	28	13.973211987913
7	30	29	13.918392209036
7	31	30	13.928662607018
7	32	31	13.985277111761
7	33	32	13.95532245066
7	34	33	13.938708755139
7	35	34	13.908545650935
7	36	35	13.927478809105
7	37	36	13.897819017794
7	38	37	13.989504252097
7	39	38	13.94374062394
7	40	39	13.903882643976
7	41	40	13.969130632835
7	42	41	13.884234787642
7	43	42	13.881978327318
7	44	43	13.927070145076
7	45	44	13.922745489741
7	46	45	13.95273740395
7	47	46	13.968270483359
7	48	47	13.918685564972
7	49	48	13.921468284922
7	50	49	13.897015957548
7	51	50	13.964752228069
7	52	51	13.91147568828
7	53	52	13.974545761354
7	54	53	13.965476403411
7	55	54	13.989670229855
7	56	55	13.951804798429
7	57	56	13.892850009208
7	58	57	13.958218119799
7	59	58	13.933717581006
7	60	59	13.982012811573
7	61	60	13.954506225567
7	62	61	13.954468280503
7	63	62	13.914126337939
7	64	63	13.998578815588
7	65	64	13.932968401979
7	66	65	13.954534002345
7	67	66	13.998651232829
7	68	67	13.999179182528
7	69	68	13.886099785112
7	70	69	13.881868150404
7	71	70	13.887636745651
7	72	71	13.978686858166
7	73	72	13.970344127666
7	74	73	13.925369204739
7	76	74	11.503028205973
7	77	75	8.3084939661969
7	78	76	5.5757626568646
7	79	77	3.3211618849162
7	80	78	1.6266335353547
7	81	79	0.70715133051593
7	82	80	0.26232084274652
7	83	81	0.09568805664727
7	84	82	0.033835632228035
7	85	83	0.012538818862259
7	86	84	0.0044949869302171
7	203	85	0.0015515939487704
7	204	86	0.00056220080715219
7	2052	87	0.00020206205078003
7	2053	88	7.4991505956587e-05
7	5400	89	2.6407687680597e-05
7	5401	90	0
7	6030	91	0
7	6031	92	0
7	6032	93	0
7	6033	94	0
7	6034	95	0
7	6035	96	0
7	6036	97	0
7	6037	98	0
7	6038	99	0
7	6039	100	0
7	6040	101	0
7	6041	102	0
7	6042	103	0
7	6044	104	0
7	6045	105	0
7	6046	106	0
7	6047	107	0
7	6048	108	0
7	6049	109	0
7	6050	110	0
7	6051	111	0
7	6052	112	0
7	6053	113	0
7	6054	114	0
7	6055	115	0
7	6056	116	0
7	6057	117	0
7	6058	118	0
7	6059	119	0
7	6060	120	0
7	6061	121	0
7	6062	122	0
7	6063	123	0
7	6065	124	1.0074459883879
7	6066	125	2.9889302256727
7	6067	126	4.8098560286978
7	6068	127	6.8175175217465
7	6069	128	8.7692460296107
7	6070	129	10.599613138129
7	6071	130	12.63114044604
7	6072	131	13.911355651631
7	6073	132	13.959096302334
7	6074	133	13.985669557508
7	6076	134	13.912786148109
7	6077	135	13.880683887878
7	6078	136	13.921652116431
7	6079	137	13.904044170342
7	6080	138	13.928399279253
7	6081	139	13.947232982973
7	6082	140	13.957098587838
7	6083	141	13.872669367229
7	6084	142	13.988834063003
7	6085	143	13.962365872057
7	6086	144	13.978590016267
7	6087	145	13.996544766314
7	6088	146	13.909791962707
7	6089	147	13.955426083545
7	6090	148	13.916719595476
7	6091	149	13.96472714375
7	6092	150	13.96898798909
7	6093	151	13.902139999291
7	6094	152	13.980534003156
7	6095	153	13.976162572829
7	6097	154	13.902045026864
7	6098	155	13.998268041729
7	6099	156	13.981719435903
7	6100	157	13.904254397955
7	6101	158	13.91068194794
7	6102	159	13.901592570813
7	6103	160	13.871256113877
7	6104	161	13.9870051032
7	6105	162	13.963580676371
7	6106	163	13.94083829636
7	6108	164	13.980116114989
7	6109	165	13.977826093403
7	6110	166	13.954251742228
7	6111	167	13.894492452065
7	6112	168	13.893317757975
7	6113	169	13.907786323659
7	6114	170	13.910502062014
7	6115	171	13.881678228341
7	6116	172	13.899310339873
7	6117	173	13.872349197764
7	6118	174	13.895146320874
7	6339	175	13.975084472168
7	6340	176	13.915615806044
7	9309	177	13.983601140513
7	9310	178	13.901822753502
7	14451	179	13.971918848483
7	14452	180	13.912339184245
7	15436	181	13.942714784404
7	15437	182	13.915853303717
7	15913	183	13.922881097118
7	15915	184	13.916264264572
7	15916	185	13.879832274488
7	15917	186	13.932997833022
7	15918	187	13.939943925054
7	15919	188	13.911533115392
7	15920	189	13.909209262494
7	15921	190	13.90328337074
7	15922	191	13.932158297678
7	15923	192	13.921860637383
7	15924	193	13.959992773633
7	15926	194	13.911786046105
7	15927	195	13.943455341596
7	15928	196	13.990971652481
7	15929	197	13.954088344059
7	15930	198	13.985034477036
7	15931	199	13.887624221304
7	15932	200	13.954445283646
8	7	6	1.7932460927567
8	8	7	1.9587017235276
8	9	8	1.7806746143266
8	10	9	1.8842620940111
8	11	10	1.9413380167005
8	12	11	0.5583961215709
8	13	12	-0.073857417434921
8	14	13	0.0092065779981212
8	15	14	0.10214026641101
8	16	15	-0.096765000070445
8	17	16	-0.0036033386224883
8	18	17	0.039975998615846
8	19	18	-0.036115438612178
8	20	19	0.074191348995083
8	21	20	-0.018364551486448
8	22	21	-0.84955461610103
8	23	22	-1.1580047743662
8	24	23	-4.4608324981877
8	25	24	0.38092674279862
8	26	25	1.7156944106473
8	27	26	2.0360211738362
8	28	27	1.9703013633797
8	29	28	0.39196811840698
8	30	29	-0.054819778876846
8	31	30	0.010270397982096
8	32	31	0.056614504742901
8	33	32	-0.029954661100637
8	34	33	-0.016613695521373
8	35	34	-0.030163104203529
8	36	35	0.018933158169965
8	37	36	-0.029659791311714
8	38	37	0.091685234303586
8	39	38	-0.045763628156855
8	40	39	-0.039857979963999
8	41	40	0.065247988859191
8	42	41	-0.08489584519295
8	43	42	-0.0022564603248618
8	44	43	0.045091817758511
8	45	44	-0.0043246553349299
8	46	45	0.029991914208512
8	47	46	0.015533079409506
8	48	47	-0.0495849183877
8	49	48	0.0027827199501917
8	50	49	-0.024452327373437
8	51	50	0.067736270520836
8	52	51	-0.053276539789513
8	53	52	0.063070073074195
8	54	53	-0.0090693579427903
8	55	54	0.024193826443517
8	56	55	-0.037865431425162
8	57	56	-0.058954789221753
8	58	57	0.065368110591081
8	59	58	-0.024500538792926
8	60	59	0.048295230567454
8	61	60	-0.027506586005911
8	62	61	-3.7945064249811e-05
8	63	62	-0.040341942564119
8	64	63	0.08445247764932
8	65	64	-0.065610413609539
8	66	65	0.021565600365866
8	67	66	0.044117230484263
8	68	67	0.0005279496987356
8	69	68	-0.11307939741528
8	70	69	-0.0042316347081215
8	71	70	0.0057685952470639
8	72	71	0.091050112515221
8	73	72	-0.0083427305007344
8	74	73	-0.044974922926631
8	76	74	-2.4223409987658
8	77	75	-3.1945342397763
8	78	76	-2.7327313093324
8	79	77	-2.2546007719484
8	80	78	-1.6945283495614
8	81	79	-0.91948220483881
8	82	80	-0.44483048776941
8	83	81	-0.16663278609925
8	84	82	-0.061852424419235
8	85	83	-0.021296813365776
8	86	84	-0.0080438319320418
8	203	85	-0.0029433929814467
8	204	86	-0.0009893931416182
8	2052	87	-0.00036013875637216
8	2053	88	-0.00012707054482344
8	5400	89	-4.8583818275989e-05
8	5401	90	-2.6407687680597e-05
8	6030	91	0
8	6031	92	0
8	6032	93	0
8	6033	94	0
8	6034	95	0
8	6035	96	0
8	6036	97	0
8	6037	98	0
8	6038	99	0
8	6039	100	0
8	6040	101	0
8	6041	102	0
8	6042	103	0
8	6044	104	0
8	6045	105	0
8	6046	106	0
8	6047	107	0
8	6048	108	0
8	6049	109	0
8	6050	110	0
8	6051	111	0
8	6052	112	0
8	6053	113	0
8	6054	114	0
8	6055	115	0
8	6056	116	0
8	6057	117	0
8	6058	118	0
8	6059	119	0
8	6060	120	0
8	6061	121	0
8	6062	122	0
8	6063	123	0
8	6065	124	1.0074459883879
8	6066	125	1.9814842372848
8	6067	126	1.8209258030251
8	6068	127	2.0076614930487
8	6069	128	1.9517285078642
8	6070	129	1.8303671085183
8	6071	130	2.0315273079113
8	6072	131	1.2802152055907
8	6073	132	0.047740650703199
8	6074	133	0.026573255173863
8	6076	134	-0.072883409399074
8	6077	135	-0.03210226023104
8	6078	136	0.040968228552956
8	6079	137	-0.017607946088537
8	6080	138	0.024355108910239
8	6081	139	0.018833703720011
8	6082	140	0.0098656048648991
8	6083	141	-0.084429220608435
8	6084	142	0.1161646957742
8	6085	143	-0.026468190946616
8	6086	144	0.016224144210573
8	6087	145	0.017954750047066
8	6088	146	-0.086752803607379
8	6089	147	0.045634120837786
8	6090	148	-0.038706488069147
8	6091	149	0.048007548274473
8	6092	150	0.0042608453403226
8	6093	151	-0.066847989798989
8	6094	152	0.078394003864377
8	6095	153	-0.0043714303267191
8	6097	154	-0.074117545965127
8	6098	155	0.096223014865537
8	6099	156	-0.016548605826683
8	6100	157	-0.077465037947986
8	6101	158	0.0064275499852364
8	6102	159	-0.0090893771266565
8	6103	160	-0.030336456936784
8	6104	161	0.11574898932362
8	6105	162	-0.023424426829443
8	6106	163	-0.022742380010895
8	6108	164	0.039277818629053
8	6109	165	-0.0022900215862336
8	6110	166	-0.023574351174757
8	6111	167	-0.059759290162473
8	6112	168	-0.0011746940901496
8	6113	169	0.014468565683346
8	6114	170	0.0027157383551817
8	6115	171	-0.028823833672796
8	6116	172	0.017632111532148
8	6117	173	-0.026961142108776
8	6118	174	0.022797123109923
8	6339	175	0.0799381512939
8	6340	176	-0.059468666124157
8	9309	177	0.067985334468538
8	9310	178	-0.081778387010562
8	14451	179	0.070096094980835
8	14452	180	-0.059579664238262
8	15436	181	0.030375600159168
8	15437	182	-0.026861480686348
8	15913	183	0.0070277934009209
8	15915	184	-0.006616832546424
8	15916	185	-0.036431990084239
8	15917	186	0.053165558534674
8	15918	187	0.0069460920314306
8	15919	188	-0.028410809661727
8	15920	189	-0.0023238528985541
8	15921	190	-0.0059258917532858
8	15922	191	0.028874926937279
8	15923	192	-0.010297660294455
8	15924	193	0.038132136249915
8	15926	194	-0.048206727528013
8	15927	195	0.031669295490719
8	15928	196	0.047516310885548
8	15929	197	-0.036883308421819
8	15930	198	0.030946132976096
8	15931	199	-0.097410255731084
8	15932	200	0.066821062341333
9	7	6	3.9274001426868
9	8	7	5.2041356246368
9	9	8	5.7574507674447
9	10	9	7.0006276784153
9	11	10	8.2432295261252
9	12	11	3.9110016848773
9	13	12	1.7792042638201
9	14	13	2.0579365757541
9	15	14	2.3818636967155
9	16	15	1.7037407999188
9	17	16	2.0152488537881
9	18	17	2.1655550639215
9	19	18	1.906797412239
9	20	19	2.2849654495652
9	21	20	1.9716653983805
9	22	21	0.973
9	23	22	0.973
9	24	23	0.973
9	25	24	2.2554772362628
9	26	25	5.6120472675651
9	27	26	7.5119842129131
9	28	27	8.4455276517466
9	29	28	3.3560730035355
9	30	29	1.8466200733259
9	31	30	2.0660268329645
9	32	31	2.2281549844786
9	33	32	1.9335288120447
9	34	33	1.9767670407741
9	35	34	1.9283950769156
9	36	35	2.0949799016024
9	37	36	1.9290667558988
9	38	37	2.3468857079218
9	39	38	1.8793040227889
9	40	39	1.8954681876561
9	41	40	2.2553467174174
9	42	41	1.7429567241042
9	43	42	2.0192482635441
9	44	43	2.1827359052182
9	45	44	2.0164367628106
9	46	45	2.1348602115454
9	47	46	2.0878872407227
9	48	47	1.8642059318509
9	49	48	2.0401536442479
9	50	49	1.9464315106901
9	51	50	2.2632042711189
9	52	51	1.851180617826
9	53	52	2.2486511283506
9	54	53	2.0047870143605
9	55	54	2.1193583924862
9	56	55	1.9065956504161
9	57	56	1.8305118457369
9	58	57	2.2544630998412
9	59	58	1.9497933768092
9	60	59	2.199742909699
9	61	60	1.9416842431598
9	62	61	2.0340583936544
9	63	62	1.8947902862501
9	64	63	2.3236156337703
9	65	64	1.8116807487081
9	66	65	2.1067187558746
9	67	66	2.1875465210812
9	68	67	2.0405446651404
9	69	68	1.6487905152147
9	70	69	2.0126291187762
9	71	70	2.0466796925005
9	72	71	2.3433989621326
9	73	72	2.0077208397811
9	74	73	1.8802787050508
9	76	74	0.973
9	77	75	0.973
9	78	76	0.973
9	79	77	0.973
9	80	78	0.973
9	81	79	0.973
9	82	80	0.973
9	83	81	0.973
9	84	82	1.1111278658488
9	85	83	1.1105405169147
9	86	84	1.1102081243603
9	203	85	1.1100737482573
9	204	86	1.1100269865137
9	2052	87	1.1100097299357
9	2053	88	1.1100036152937
9	5400	89	1.1100012735977
9	5401	90	0.973
9	6030	91	0.973
9	6031	92	0.973
9	6032	93	0.973
9	6033	94	0.973
9	6034	95	0.973
9	6035	96	0.973
9	6036	97	0.973
9	6037	98	0.973
9	6038	99	0.973
9	6039	100	0.973
9	6040	101	0.973
9	6041	102	0.973
9	6042	103	0.973
9	6044	104	0.973
9	6045	105	0.973
9	6046	106	0.973
9	6047	107	0.973
9	6048	108	0.973
9	6049	109	0.973
9	6050	110	0.973
9	6051	111	0.973
9	6052	112	0.973
9	6053	113	0.973
9	6054	114	0.973
9	6055	115	0.973
9	6056	116	0.973
9	6057	117	0.973
9	6058	118	0.973
9	6059	119	0.973
9	6060	120	0.973
9	6061	121	0.973
9	6062	122	0.973
9	6063	123	0.973
9	6065	124	1.4032959804234
9	6066	125	2.6839795840135
9	6067	126	3.4630791015344
9	6068	127	4.7667804285314
9	6069	128	5.7200845072804
9	6070	129	6.407023179348
9	6071	130	8.089674348387
9	6072	131	6.3218833112619
9	6073	132	2.1952654366489
9	6074	133	2.1269451191026
9	6076	134	1.7855558300948
9	6077	135	1.9192758908256
9	6078	136	2.1682894028507
9	6079	137	1.9700401564216
9	6080	138	2.1132780923625
9	6081	139	2.0967521261933
9	6082	140	2.0676394119274
9	6083	141	1.7435781492056
9	6084	142	2.4293300508524
9	6085	143	1.945929812323
9	6086	144	2.0913101916029
9	6087	145	2.0990577040159
9	6088	146	1.7388095837429
9	6089	147	2.1877632083839
9	6090	148	1.9005145370032
9	6091	149	2.1968042961102
9	6092	150	2.0500150684712
9	6093	151	1.8048797568188
9	6094	152	2.3009863061562
9	6095	153	2.0216810197987
9	6097	154	1.780515749493
9	6098	155	2.3632863193112
9	6099	156	1.9812120211058
9	6100	157	1.7694840250872
9	6101	158	2.0512663796081
9	6102	159	1.9983405927992
9	6103	160	1.9242939949574
9	6104	161	2.4276901516778
9	6105	162	1.9562892484012
9	6106	163	1.9563851254971
9	6108	164	2.1691450530814
9	6109	165	2.0288611293971
9	6110	166	1.9548839267273
9	6111	167	1.8279616767825
9	6112	168	2.0240172755128
9	6113	169	2.0779186428145
9	6114	170	2.0388041841175
9	6115	171	1.9303371884883
9	6116	172	2.0876231595316
9	6117	173	1.9356815008423
9	6118	174	2.1044779476447
9	6339	175	2.3055260701722
9	6340	176	1.8307829891951
9	9309	177	2.2662806746104
9	9310	178	1.7548306755801
9	14451	179	2.2720005806138
9	14452	180	1.8301239210578
9	15436	181	2.1350531771457
9	15437	182	1.9401591790509
9	15913	183	2.0545426175358
9	15915	184	2.008095298911
9	15916	185	1.9047128092177
9	15917	186	2.2105154788471
9	15918	187	2.0560379228057
9	15919	188	1.9345525540005
9	15920	189	2.0217783396811
9	15921	190	2.0091088827246
9	15922	191	2.1288596155953
9	15923	192	1.9963070300968
9	15924	193	2.1630409260281
9	15926	194	1.8682060152898
9	15927	195	2.1394815211727
9	15928	196	2.1981386720178
9	15929	197	1.9101109931467
9	15930	198	2.1416143091045
9	15931	199	1.7013473059811
9	15932	200	2.2589043103441
10	8	7	2414.8848622198
10	9	8	2412.0691307599
10	10	9	2407.3819784434
10	11	10	2402.4639103656
10	12	11	2396.2016479742
10	13	12	2388.5021761758
10	14	13	2379.5347220144
10	15	14	2369.7521497252
10	16	15	2359.9648396304
10	17	16	2350.1637192596
10	18	17	2340.717056727
10	19	18	2334.4889366638
10	20	19	2338.0188398167
10	21	20	2348.6970945761
10	22	21	2359.0578910074
10	23	22	2372.1753142256
10	24	23	2385.9847009928
10	25	24	2399.0560799135
10	26	25	2411.469456295
10	27	26	2420.8240344936
10	28	27	2428.2511095385
10	29	28	2431.5096723901
10	30	29	2433.2168502312
10	31	30	2435.2011956087
10	32	31	2437.29147981
10	33	32	2438.672857787
10	34	33	2439.5458305131
10	35	34	2440.5569901068
10	36	35	2441.5662171456
10	37	36	2442.5764760413
10	38	37	2443.5864360537
10	39	38	2444.5969193554
10	40	39	2445.6077267987
10	41	40	2446.6171177449
10	42	41	2447.6285385494
10	43	42	2448.6389437378
10	44	43	2449.6489775468
10	45	44	2450.659299592
10	46	45	2449.5461587089
10	47	46	2448.4337074455
10	48	47	2447.3207898499
10	49	48	2446.207873206
10	50	49	2445.0940501215
10	51	50	2443.9833638043
10	52	51	2442.8694501355
10	53	52	2441.7571938549
10	54	53	2440.6460889142
10	55	54	2439.6827321647
10	56	55	2438.7413750661
10	57	56	2437.8192072627
10	58	57	2432.6325302194
10	59	58	2422.106233715
10	60	59	2408.9688818519
10	61	60	2395.0345910933
10	62	61	2381.126587261
10	63	62	2367.2179763186
10	64	63	2353.2984252305
10	65	64	2339.3434596916
10	66	65	2325.3984135713
10	67	66	2311.4586331139
10	68	67	2297.5367558505
10	69	68	2283.6070172336
10	70	69	2269.6839314153
10	71	70	2255.7643697551
10	72	71	2241.8757564033
10	73	72	2228.0688688542
10	74	73	2214.3596332766
10	76	74	2201.1714023183
10	77	75	2187.9686336372
10	78	76	2175.8734212776
10	79	77	2166.9060475181
10	80	78	2160.0570473718
10	81	79	2155.1946690262
10	82	80	2152.0845165758
10	83	81	2150.3460835881
10	84	82	2149.5044575131
10	85	83	2149.1558657689
10	86	84	2149.0223896184
10	203	85	2148.9725696122
10	204	86	2148.9540163553
10	2052	87	2148.9470391435
10	2053	88	2148.9444051881
10	5400	89	2148.9434134671
10	5401	90	2148.94304363
10	6030	91	2148.9429086937
10	6031	92	2148.9428601107
10	6032	93	2148.9428425793
10	6033	94	2148.9428407104
10	6034	95	2148.9428407104
10	6035	96	2148.9428407104
10	6036	97	2148.9428407104
10	6037	98	2148.9428407104
10	6038	99	2148.9428407104
10	6039	100	2148.9428407104
10	6040	101	2148.9428407104
10	6041	102	2148.9428407104
10	6042	103	2148.9428407104
10	6044	104	2148.9428407104
10	6045	105	2148.9428407104
10	6046	106	2148.9428407104
10	6047	107	2148.9428407104
10	6048	108	2148.9428407104
10	6049	109	2148.9428407104
10	6050	110	2148.9428407104
10	6051	111	2148.9428407104
10	6052	112	2148.9428407104
10	6053	113	2148.9428407104
10	6054	114	2148.9428407104
10	6055	115	2148.9428407104
10	6056	116	2148.9428407104
10	6057	117	2148.9428407104
10	6058	118	2148.9428407104
10	6059	119	2148.9428407104
10	6060	120	2148.9428407104
10	6061	121	2148.9428407104
10	6062	122	2148.9428407104
10	6063	123	2148.9428407104
10	6065	124	2148.8702690681
10	6066	125	2148.0086281676
10	6067	126	2145.7118229447
10	6068	127	2141.8120576798
10	6069	128	2136.7254955326
10	6070	129	2131.117327133
10	6071	130	2124.0657879765
10	6072	131	2115.6133790046
10	6073	132	2106.1561989734
10	6074	133	2096.6378862071
10	6076	134	2087.1217902419
10	6077	135	2077.6044014551
10	6078	136	2068.0710886348
10	6079	137	2058.5401411533
10	6080	138	2049.0209457527
10	6081	139	2039.0665878284
10	6082	140	2029.0627509638
10	6083	141	2019.068488598
10	6084	142	2009.0755044145
10	6085	143	1999.082110878
10	6086	144	1989.0864711792
10	6087	145	1979.0778519714
10	6088	146	1969.0997515288
10	6089	147	1959.1030309986
10	6090	148	1949.0920758178
10	6091	149	1939.0990133696
10	6092	150	1929.3238982954
10	6093	151	1919.5893011614
10	6094	152	1909.8640592867
10	6095	153	1900.1361472709
10	6097	154	1890.3993230128
10	6098	155	1880.685966054
10	6099	156	1870.9506903876
10	6100	157	1861.2166143787
10	6101	158	1851.4722610052
10	6102	159	1841.7369804527
10	6103	160	1831.8535073408
10	6104	161	1821.7426111082
10	6105	162	1811.6210658533
10	6106	163	1801.6432688717
10	6108	164	1791.7017748873
10	6109	165	1781.7595340305
10	6110	166	1771.7925374205
10	6111	167	1761.8389916777
10	6112	168	1751.8741590569
10	6113	169	1741.918884408
10	6114	170	1731.9774346824
10	6115	171	1722.0212385546
10	6116	172	1712.0772054117
10	6117	173	1702.1265422746
10	6118	174	1692.1826338564
10	6339	175	1682.2328012168
10	6340	176	1672.2662981771
10	9309	177	1662.3004702466
10	9310	178	1652.3501474471
10	14451	179	1642.4014628541
10	14452	180	1632.4360032588
10	15436	181	1622.4939026362
10	15437	182	1612.6959237646
10	15913	183	1602.8667681526
10	15915	184	1593.0418467643
10	15916	185	1583.2374762548
10	15917	186	1573.4200091433
10	15918	187	1563.6005657559
10	15919	188	1553.282985798
10	15920	189	1542.719625566
10	15921	190	1532.1689063335
10	15922	191	1521.6256383762
10	15923	192	1511.0776744894
10	15924	193	1500.1918185117
10	15926	194	1488.7834805817
10	15927	195	1477.3862786073
10	15928	196	1465.9602164741
10	15929	197	1454.5625143682
10	15930	198	1442.5934273297
10	15931	199	1429.955481346
10	15932	200	1417.2894452021
11	8	7	1578.4476927174
11	9	8	1579.4816146148
11	10	9	1581.3305685576
11	11	10	1586.311893981
11	12	11	1592.6547030602
11	13	12	1600.4532072712
11	14	13	1609.5360029312
11	15	14	1619.4444009606
11	16	15	1629.3575977338
11	17	16	1639.2847824143
11	18	17	1649.4765304932
11	19	18	1661.4854336744
11	20	19	1673.8446300924
11	21	20	1682.7957309801
11	22	21	1692.1393567109
11	23	22	1695.6439150097
11	24	23	1697.4374776948
11	25	24	1698.6863156371
11	26	25	1699.860083269
11	27	26	1700.7446211064
11	28	27	1701.4003788568
11	29	28	1709.757081449
11	30	29	1720.9911797
11	31	30	1734.0491812732
11	32	31	1747.8043141738
11	33	32	1761.6824669717
11	34	33	1775.5982529195
11	35	34	1789.5036912933
11	36	35	1803.3825532272
11	37	36	1817.2756052278
11	38	37	1831.1645469936
11	39	38	1845.0606850199
11	40	39	1858.9612806309
11	41	40	1872.8423966132
11	42	41	1886.7514271513
11	43	42	1900.646490965
11	44	43	1914.536447579
11	45	44	1928.4487420022
11	46	45	1942.3421864314
11	47	46	1956.2270235084
11	48	47	1970.117681019
11	49	48	1984.0083266487
11	50	49	1997.9102858361
11	51	50	2011.7730940934
11	52	51	2025.6761838896
11	53	52	2039.5585873295
11	54	53	2053.4266205495
11	55	54	2067.3249077424
11	56	55	2081.2332002614
11	57	56	2095.1082015075
11	58	57	2107.8060795395
11	59	58	2116.5990612879
11	60	59	2120.9591539605
11	61	60	2120.4885113519
11	62	61	2120.0187566066
11	63	62	2119.5489813555
11	64	63	2119.0788365919
11	65	64	2118.6074956749
11	66	65	2118.1364897946
11	67	66	2117.6656617671
11	68	67	2117.1954384353
11	69	68	2116.7249495788
11	70	69	2116.2546854271
11	71	70	2115.7845403058
11	72	71	2114.7251280239
11	73	72	2112.7672046544
11	74	73	2110.4934893819
11	76	74	2106.020655496
11	77	75	2101.5428910907
11	78	76	2096.8527193153
11	79	77	2091.5737679731
11	80	78	2087.5418697288
11	81	79	2084.6794643719
11	82	80	2082.8485667314
11	83	81	2081.8251786809
11	84	82	2081.3297266997
11	85	83	2081.1245162431
11	86	84	2081.0459409412
11	203	85	2081.0166126899
11	204	86	2081.0056906808
11	2052	87	2081.0015833061
11	2053	88	2081.0000327388
11	5400	89	2080.9994489281
11	5401	90	2080.9992312109
11	6030	91	2080.9991517756
11	6031	92	2080.9991231756
11	6032	93	2080.9991128556
11	6033	94	2080.9991117548
11	6034	95	2080.9991117548
11	6035	96	2080.9991117548
11	6036	97	2080.9991117548
11	6037	98	2080.9991117548
11	6038	99	2080.9991117548
11	6039	100	2080.9991117548
11	6040	101	2080.9991117548
11	6041	102	2080.9991117548
11	6042	103	2080.9991117548
11	6044	104	2080.9991117548
11	6045	105	2080.9991117548
11	6046	106	2080.9991117548
11	6047	107	2080.9991117548
11	6048	108	2080.9991117548
11	6049	109	2080.9991117548
11	6050	110	2080.9991117548
11	6051	111	2080.9991117548
11	6052	112	2080.9991117548
[...]
286	15921	190	1695.092484748
286	15922	191	1696.4712059237
286	15923	192	1697.5028480021
286	15924	193	1698.1413867651
286	15926	194	1698.6200743932
286	15927	195	1698.9583148509
286	15928	196	1699.1744562369
286	15929	197	1699.2983081816
286	15930	198	1699.3579033967
286	15931	199	1699.3836863134
286	15932	200	1699.3940927023
287	6117	173	4.1722982974219
287	6118	174	6.050894032536
287	6339	175	8.0941174606475
287	6340	176	9.9043262539114
287	9309	177	11.739932488888
287	9310	178	12.063107383124
287	14451	179	11.451604581323
287	14452	180	10.807792567365
287	15436	181	10.456727610217
287	15437	182	10.177739571168
287	15913	183	10.027778008407
287	15915	184	9.8660203747192
287	15916	185	9.7325289176456
287	15917	186	9.6895184191502
287	15918	187	9.5708557140312
287	15919	188	9.5956894040654
287	15920	189	9.4541393154406
287	15921	190	9.4879949003064
287	15922	191	9.4922801435492
287	15923	192	7.7853375847062
287	15924	193	6.0273148123034
287	15926	194	4.4217929042567
287	15927	195	2.9756044794615
287	15928	196	1.8612807007319
287	15929	197	0.96766002488021
287	15930	198	0.42182635174988
287	15931	199	0.17891336776662
287	15932	200	0.072159258200678
288	6118	174	1.8785957351141
288	6339	175	2.0432234281115
288	6340	176	1.8102087932639
288	9309	177	1.835606234977
288	9310	178	0.32317489423551
288	14451	179	-0.61150280180069
288	14452	180	-0.643812013958
288	15436	181	-0.35106495714859
288	15437	182	-0.27898803904832
288	15913	183	-0.14996156276111
288	15915	184	-0.16175763368804
288	15916	185	-0.13349145707354
288	15917	186	-0.043010498495448
288	15918	187	-0.11866270511896
288	15919	188	0.024833690034201
288	15920	189	-0.14155008862477
288	15921	190	0.033855584865764
288	15922	191	0.004285243242828
288	15923	192	-1.706942558843
288	15924	193	-1.7580227724029
288	15926	194	-1.6055219080467
288	15927	195	-1.4461884247951
288	15928	196	-1.1143237787296
288	15929	197	-0.89362067585166
288	15930	198	-0.54583367313033
288	15931	199	-0.24291298398327
288	15932	200	-0.10675410956594
289	6118	174	4.1618523283488
289	6339	175	5.5351270590395
289	6340	176	5.9984019279033
289	9309	177	7.0193339422111
289	9310	178	2.7936236636263
289	14451	179	0.973
289	14452	180	0.973
289	15436	181	0.973
289	15437	182	0.973
289	15913	183	1.3244795779926
289	15915	184	1.2900392714646
289	15916	185	1.3515504879559
289	15917	186	1.561024062663
289	15918	187	1.3789823116108
289	15919	188	1.7119463571957
289	15920	189	1.3216150467812
289	15921	190	1.724018738573
289	15922	191	1.6567210991782
289	15923	192	0.973
289	15924	193	0.973
289	15926	194	0.973
289	15927	195	0.973
289	15928	196	0.973
289	15929	197	0.973
289	15930	198	0.973
289	15931	199	0.973
289	15932	200	0.973
290	6339	175	2414.8887947192
290	6340	176	2411.839309744
290	9309	177	2407.1483131133
290	9310	178	2402.1055246805
290	14451	179	2395.7036317975
290	14452	180	2387.9536180414
290	15436	181	2378.9356486216
290	15437	182	2369.7263681659
290	15913	183	2360.5372305254
290	15915	184	2351.4839329404
290	15916	185	2342.9731922124
290	15917	186	2335.9011286141
290	15918	187	2333.8668947089
290	15919	188	2339.2133343287
290	15920	189	2347.1266310998
290	15921	190	2354.6020069881
290	15922	191	2362.2321791128
290	15923	192	2371.5147810123
290	15924	193	2379.3884491734
290	15926	194	2385.8827709075
290	15927	195	2391.0956500977
290	15928	196	2395.0325799037
290	15929	197	2397.8443623888
290	15930	198	2399.6548158071
290	15931	199	2400.6964344787
290	15932	200	2401.2186905668
291	6339	175	1578.4462487241
291	6340	176	1579.5660036923
291	9309	177	1581.567239346
291	9310	178	1586.6748893065
291	14451	179	1593.1591248373
291	14452	180	1601.0088210888
291	15436	181	1610.1427817466
291	15437	182	1619.4705141289
291	15913	183	1628.7778446134
291	15915	184	1637.9475878356
291	15916	185	1646.5883259233
291	15917	186	1655.6416680394
291	15918	187	1666.3156582909
291	15919	188	1674.8092562454
291	15920	189	1681.3794476818
291	15921	190	1688.1209288947
291	15922	191	1694.1577303363
291	15923	192	1695.5451861555
291	15924	193	1696.6523765232
291	15926	194	1697.4253457403
291	15927	195	1697.933603839
291	15928	196	1698.3058668431
291	15929	197	1698.5717396531
291	15930	198	1698.7429301143
291	15931	199	1698.8414221155
291	15932	200	1698.8908049157
292	6340	176	4.1406812462363
292	9309	177	6.0654450932554
292	9310	178	8.1474102431548
292	14451	179	9.9105920719601
292	14452	180	11.990486721428
292	15436	181	13.100831135974
292	15437	182	13.077337078374
292	15913	183	13.110146855266
292	15915	184	12.647587796033
292	15916	185	11.861903611965
292	15917	186	11.251897054644
292	15918	187	10.762691580144
292	15919	188	10.395253332004
292	15920	189	10.160463306642
292	15921	190	9.9230536362815
292	15922	191	9.8511583822751
292	15923	192	8.7802807883677
292	15924	193	7.3350389366889
292	15926	194	5.9150598572958
292	15927	195	4.6677783165768
292	15928	196	3.4030222442361
292	15929	197	2.3886696288934
292	15930	198	1.3984172396444
292	15931	199	0.77129443831687
292	15932	200	0.35789611826728
293	9309	177	1.9247638470191
293	9310	178	2.0819651498995
293	14451	179	1.7631818288052
293	14452	180	2.0798946494679
293	15436	181	1.1103444145459
293	15437	182	-0.023494057599454
293	15913	183	0.032809776891954
293	15915	184	-0.46255905923375
293	15916	185	-0.78568418406799
293	15917	186	-0.6100065573202
293	15918	187	-0.48920547450007
293	15919	188	-0.3674382481402
293	15920	189	-0.23479002536233
293	15921	190	-0.23740967036031
293	15922	191	-0.071895254006449
293	15923	192	-1.0708775939074
293	15924	193	-1.4452418516788
293	15926	194	-1.4199790793931
293	15927	195	-1.247281540719
293	15928	196	-1.2647560723407
293	15929	197	-1.0143526153426
293	15930	198	-0.99025238924902
293	15931	199	-0.62712280132755
293	15932	200	-0.41339832004959
294	9309	177	4.2367774106375
294	9310	178	5.6409845367817
294	14451	179	5.889286488747
294	14452	180	7.857959183656
294	15436	181	5.455390510904
294	15437	182	1.8734061273251
294	15913	183	2.0542565448375
294	15915	184	0.973
294	15916	185	0.973
294	15917	186	0.973
294	15918	187	0.973
294	15919	188	0.973
294	15920	189	0.973
294	15921	190	0.973
294	15922	191	1.5028462858087
294	15923	192	0.973
294	15924	193	0.973
294	15926	194	0.973
294	15927	195	0.973
294	15928	196	0.973
294	15929	197	0.973
294	15930	198	0.973
294	15931	199	0.973
294	15932	200	0.973
295	9310	178	2414.8411606834
295	14451	179	2411.8212945821
295	14452	180	2407.2340216642
295	15436	181	2402.4078865714
295	15437	182	2396.1670496335
295	15913	183	2388.4829322497
295	15915	184	2379.706800545
295	15916	185	2370.8227059451
295	15917	186	2361.9707496609
295	15918	187	2353.1122649581
295	15919	188	2344.2440478104
295	15920	189	2336.3270312872
295	15921	190	2333.8656889133
295	15922	191	2341.5537264398
295	15923	192	2350.9971634647
295	15924	193	2359.2685692153
295	15926	194	2368.0565676257
295	15927	195	2375.8908851432
295	15928	196	2382.2379090653
295	15929	197	2387.2071075563
295	15930	198	2390.8762875041
295	15931	199	2393.3790716749
295	15932	200	2394.9531358999
296	9310	178	1578.4637396941
296	14451	179	1579.5726187658
296	14452	180	1581.4804283911
296	15436	181	1586.3686383655
296	15437	182	1592.6897464124
296	15913	183	1600.4726987174
296	15915	184	1609.3617110867
296	15916	185	1618.3600749951
296	15917	186	1627.3258872181
296	15918	187	1636.2983118296
296	15919	188	1645.2805940667
296	15920	189	1655.0964463288
296	15921	190	1667.2697982499
296	15922	191	1676.6992636202
296	15923	192	1684.8699907148
296	15924	193	1692.3293515956
296	15926	194	1695.0282924725
296	15927	195	1696.199275516
296	15928	196	1696.99152584
296	15929	197	1697.565916175
296	15930	198	1697.9128616415
296	15931	199	1698.1495165974
296	15932	200	1698.2983548818
297	14451	179	4.0301020879068
297	14452	180	5.7866659510231
297	15436	181	7.8106567098528
297	15437	182	9.7852737790208
297	15913	183	11.771192707108
297	15915	184	12.646955651697
297	15916	185	12.691492472105
297	15917	186	12.65436932687
297	15918	187	12.633675903024
297	15919	188	12.599634996388
297	15920	189	12.659472650269
297	15921	190	12.658417382807
297	15922	191	12.63769881008
297	15923	192	12.043301552481
297	15924	193	10.413530604008
297	15926	194	8.7867382522903
297	15927	195	7.322603631566
297	15928	196	5.7391122827922
297	15929	197	4.4579553424186
297	15930	198	3.0844155497465
297	15931	199	2.0439939088209
297	15932	200	1.2355295623238
298	14452	180	1.7565638631163
298	15436	181	2.0239907588297
298	15437	182	1.974617069168
298	15913	183	1.9859189280868
298	15915	184	0.87576294458965
298	15916	185	0.044536820407956
298	15917	186	-0.037123145235237
298	15918	187	-0.020693423845804
298	15919	188	-0.034040906636511
298	15920	189	0.059837653881406
298	15921	190	-0.0010552674625082
298	15922	191	-0.020718572726473
298	15923	192	-0.59439725759904
298	15924	193	-1.6297709484727
298	15926	194	-1.6267923517181
298	15927	195	-1.4641346207242
298	15928	196	-1.5834913487738
298	15929	197	-1.2811569403737
298	15930	198	-1.3735397926721
298	15931	199	-1.0404216409256
298	15932	200	-0.80846434649705
299	14452	180	3.8567292070852
299	15436	181	5.3407005675328
299	15437	182	6.3252391424865
299	15913	183	7.4622837645495
299	15915	184	4.5762074728406
299	15916	185	2.0473074295133
299	15917	186	1.7944271933776
299	15918	187	1.8427210667168
299	15919	188	1.7992172049887
299	15920	189	2.0906751831929
299	15921	190	1.9047974625166
299	15922	191	1.8429964782652
299	15923	192	0.973
299	15924	193	0.973
299	15926	194	0.973
299	15927	195	0.973
299	15928	196	0.973
299	15929	197	0.973
299	15930	198	0.973
299	15931	199	0.973
299	15932	200	0.973
300	15436	181	2414.8779380508
300	15437	182	2411.9970329538
300	15913	183	2407.4862191244
300	15915	184	2402.5944783367
300	15916	185	2396.3107487656
300	15917	186	2388.7262865513
300	15918	187	2380.8504155858
300	15919	188	2372.9843149764
300	15920	189	2365.0945059197
300	15921	190	2357.2114851256
300	15922	191	2349.3247325944
300	15923	192	2341.6477208548
300	15924	193	2335.177532454
300	15926	194	2334.0491336513
300	15927	195	2341.3654217112
300	15928	196	2349.8683449661
300	15929	197	2358.1906958385
300	15930	198	2367.7850334342
300	15931	199	2376.123123192
300	15932	200	2382.3014627453
301	15436	181	1578.4502352364
301	15437	182	1579.5080885524
301	15913	183	1581.2249871083
301	15915	184	1586.1796466131
301	15916	185	1592.5441989889
301	15917	186	1600.2262143353
301	15918	187	1608.2033866011
301	15919	188	1616.1706628418
301	15920	189	1624.1619524732
301	15921	190	1632.1463665301
301	15922	191	1640.1345603233
301	15923	192	1648.2851355597
301	15924	193	1657.3384426096
301	15926	194	1668.4333620165
301	15927	195	1676.5471962271
301	15928	196	1683.8519939184
301	15929	197	1691.3572983872
301	15930	198	1694.9877066864
301	15931	199	1696.23398777
301	15932	200	1696.9990901463
302	15437	182	3.8568705508995
302	15913	183	5.7107599186359
302	15915	184	7.8633960219004
302	15916	185	9.8373710972068
302	15917	186	11.236298415992
302	15918	187	11.218727136085
302	15919	188	11.165747769568
302	15920	189	11.275574481318
302	15921	190	11.176221124339
302	15922	191	11.209788830762
302	15923	192	11.23493280611
302	15924	193	11.244871398192
302	15926	194	11.147921455172
302	15927	195	11.249734024895
302	15928	196	11.198601163442
302	15929	197	11.229697564426
302	15930	198	9.6867360400611
302	15931	199	7.3906289849601
302	15932	200	5.2776683298751
303	15913	183	1.8538893677364
303	15915	184	2.1526361032645
303	15916	185	1.9739750753064
303	15917	186	1.3989273187849
303	15918	187	-0.017571279907132
303	15919	188	-0.052979366516229
303	15920	189	0.10982671174919
303	15921	190	-0.099353356978391
303	15922	191	0.033567706423346
303	15923	192	0.025143975347746
303	15924	193	0.0099385920818893
303	15926	194	-0.096949943020007
303	15927	195	0.10181256972253
303	15928	196	-0.051132861452643
303	15929	197	0.031096400984097
303	15930	198	-1.542961524365
303	15931	199	-2.296107055101
303	15932	200	-2.112960655085
304	15913	183	3.954187267393
304	15915	184	5.6136607088567
304	15916	185	6.3524123290938
304	15917	186	5.5713130043435
304	15918	187	1.7341214897485
304	15919	188	1.6346696674767
304	15920	189	2.0848090125448
304	15921	190	1.5104964706997
304	15922	191	1.8715716279651
304	15923	192	1.8510573306451
304	15924	193	1.8107381632415
304	15926	194	1.5152888775727
304	15927	195	2.0602422914509
304	15928	196	1.6419569903935
304	15929	197	1.8666993982651
304	15930	198	0.973
304	15931	199	0.973
304	15932	200	0.973
305	15915	184	2414.8788141906
305	15916	185	2412.0652779912
305	15917	186	2407.551033954
305	15918	187	2402.8081792406
305	15919	188	2396.7116066761
305	15920	189	2389.3548582763
305	15921	190	2380.744486539
305	15922	191	2371.7330126754
305	15923	192	2362.7249511016
305	15924	193	2353.713147666
305	15926	194	2344.6833110899
305	15927	195	2336.5824422954
305	15928	196	2333.8309977797
305	15929	197	2341.5169611881
305	15930	198	2350.8687225336
305	15931	199	2358.6832128648
305	15932	200	2366.4176509907
306	15915	184	1578.4499135222
306	15916	185	1579.4830293311
306	15917	186	1581.1593386149
306	15918	187	1585.9631970385
306	15919	188	1592.13818515
306	15920	189	1599.5895577734
306	15921	190	1608.3106781319
306	15922	191	1617.4380596867
306	15923	192	1626.5619850615
306	15924	193	1635.6897004275
306	15926	194	1644.8356808797
306	15927	195	1654.7694804864
306	15928	196	1667.0497573456
306	15929	197	1676.6695734682
306	15930	198	1684.7541594654
306	15931	199	1691.8014625777
306	15932	200	1694.7833261965
307	15916	185	3.7541588574195
307	15917	186	5.7118946708985
307	15918	187	7.5933595718689
307	15919	188	9.6098677490083
307	15920	189	11.185632338146
307	15921	190	12.828064661029
307	15922	191	12.858428171399
307	15923	192	12.773671595888
307	15924	193	12.883004034611
307	15926	194	12.869395815994
307	15927	195	12.818268577999
307	15928	196	12.806688598868
307	15929	197	12.836134299191
307	15930	198	11.620574435326
307	15931	199	9.6698515647951
307	15932	200	7.8544108825929
308	15917	186	1.9577358134789
308	15918	187	1.8814649009705
308	15919	188	2.0165081771393
308	15920	189	1.5757645891374
308	15921	190	1.6424323228832
308	15922	191	0.030363510369789
308	15923	192	-0.084756575510838
308	15924	193	0.10933243872365
308	15926	194	-0.013608218617739
308	15927	195	-0.051127237994223
308	15928	196	-0.01157997913193
308	15929	197	0.029445700323842
308	15930	198	-1.2155598638658
308	15931	199	-1.9507228705305
308	15932	200	-1.8154406822022
309	15917	186	4.0977108093026
309	15918	187	4.9598296968464
309	15919	188	6.3257520636553
309	15920	189	6.0267292681764
309	15921	190	7.0015194515765
309	15922	191	2.0207811610832
309	15923	192	1.657822167393
309	15924	193	2.2684578372911
309	15926	194	1.885514090343
309	15927	195	1.7649741148387
309	15928	196	1.8860904866543
309	15929	197	2.015683544342
309	15930	198	0.973
309	15931	199	0.973
309	15932	200	0.973
310	15918	187	2414.8585700947
310	15919	188	2411.9969703056
310	15920	189	2407.3590078291
310	15921	190	2402.5038493358
310	15922	191	2396.2110340785
310	15923	192	2388.5356686392
310	15924	193	2379.5098477243
310	15926	194	2370.1418326314
310	15927	195	2360.7787300163
310	15928	196	2351.4193250611
310	15929	197	2342.1844435789
310	15930	198	2334.9812863778
310	15931	199	2335.3851237283
310	15932	200	2345.3407236338
311	15918	187	1578.4573470484
311	15919	188	1579.508111557
311	15920	189	1581.3538346253
311	15921	190	1586.271441306
311	15922	191	1592.6451962292
311	15923	192	1600.4192840196
311	15924	193	1609.5611971607
311	15926	194	1619.0497058611
311	15927	195	1628.533238899
311	15928	196	1638.0130267162
311	15929	197	1647.5980469361
311	15930	198	1658.5203126362
311	15931	199	1671.4201332461
311	15932	200	1679.768871597
312	15919	188	3.8585680350128
312	15920	189	5.8516531472004
312	15921	190	7.8973758989761
312	15922	191	9.8557514331911
312	15923	192	11.942946414342
312	15924	193	13.281673413053
312	15926	194	13.354737228594
312	15927	195	13.387590942945
312	15928	196	13.339860889638
312	15929	197	13.271152209534
312	15930	198	13.34358413055
312	15931	199	13.36102348745
312	15932	200	12.234186555332
313	15920	189	1.9930851121875
313	15921	190	2.0457227517758
313	15922	191	1.958375534215
313	15923	192	2.0871949811513
313	15924	193	1.3387269987105
313	15926	194	0.073063815541101
313	15927	195	0.032853714351075
313	15928	196	-0.047730053307022
313	15929	197	-0.068708680104464
313	15930	198	0.072431921015959
313	15931	199	0.017439356900287
313	15932	200	-1.126836932118
314	15920	189	4.2215389405203
314	15921	190	5.4300282473119
314	15922	191	6.3254843183846
314	15923	192	7.8509615055178
314	15924	193	6.2522535986235
314	15926	194	2.2094162023778
314	15927	195	2.0834731771849
314	15928	196	1.8193611538366
314	15929	197	1.7463689745143
314	15930	198	2.2060989357288
314	15931	199	2.0310298725026
314	15932	200	0.973
315	15921	190	2414.8925589694
315	15922	191	2411.9627857993
315	15923	192	2407.3062772232
315	15924	193	2402.3654572419
315	15926	194	2395.9558072921
315	15927	195	2388.1006089912
315	15928	196	2378.978760769
315	15929	197	2369.4012116214
315	15930	198	2359.8513236765
315	15931	199	2350.290784059
315	15932	200	2341.0180881016
316	15921	190	1578.444866511
316	15922	191	1579.5206639292
316	15923	192	1581.4072434641
316	15924	193	1586.4116134318
316	15926	194	1592.9037058027
316	15927	195	1600.8599395072
316	15928	196	1610.0991150811
316	15929	197	1619.7998529123
316	15930	198	1629.4725737572
316	15931	199	1639.1560832784
316	15932	200	1649.0911634816
317	15922	191	3.9973312404595
317	15923	192	5.9655132869614
317	15924	193	8.0251987055532
317	15926	194	10.022291549822
317	15927	195	12.077283199195
317	15928	196	13.597041808876
317	15929	197	13.66531432328
317	15930	198	13.566644394974
317	15931	199	13.582692384666
317	15932	200	13.596724563934
318	15923	192	1.9681820465019
318	15924	193	2.0596854185918
318	15926	194	1.9970928442688
318	15927	195	2.054991649373
318	15928	196	1.519758609681
318	15929	197	0.068272514403798
318	15930	198	-0.098669928305316
318	15931	199	0.016047989691142
318	15932	200	0.014032179268542
319	15923	192	4.2470211938026
319	15924	193	5.5284636503922
319	15926	194	6.5101960467323
319	15927	195	7.8366535299921
319	15928	196	6.978222049931
319	15929	197	2.2297984887385
319	15930	198	1.6725169632209
319	15931	199	2.0492499954432
319	15932	200	2.0440939392049
320	15924	193	2414.8450449788
320	15926	194	2411.8481639778
320	15927	195	2407.1918824697
320	15928	196	2402.1068140625
320	15929	197	2395.6393894139
320	15930	198	2387.8540473643
320	15931	199	2378.7425860802
320	15932	200	2368.9560980042
321	15924	193	1578.4623134006
321	15926	194	1579.5627524639
321	15927	195	1581.5231095897
321	15928	196	1586.6735833399
321	15929	197	1593.2241935218
321	15930	198	1601.1096724672
321	15931	199	1610.3383275038
321	15932	200	1620.2506916858
322	15926	194	4.0768216341553
322	15927	195	6.1146311434992
322	15928	196	8.1238958659168
322	15929	197	10.07226857951
322	15930	198	11.975930302181
322	15931	199	13.751272715454
322	15932	200	13.880561356815
323	15927	195	2.0378095093439
323	15928	196	2.0092647224176
323	15929	197	1.9483727135928
323	15930	198	1.9036617226712
323	15931	199	1.7753424132732
323	15932	200	0.12928864136057
324	15927	195	4.4290585903548
324	15928	196	5.4852832676338
324	15929	197	6.4197949691156
324	15930	198	7.340737888557
324	15931	199	7.8971625527147
324	15932	200	2.4591516963765
325	15928	196	2414.8708323571
325	15929	197	2412.0068498836
325	15930	198	2407.3947947501
325	15931	199	2402.6063379883
325	15932	200	2396.4215075286
326	15928	196	1578.4528444102
326	15929	197	1579.5044838274
326	15930	198	1581.3175874045
326	15931	199	1586.1676344201
326	15932	200	1592.4320156202
327	15929	197	3.9035555463673
327	15930	198	5.8214058272394
327	15931	199	7.7054297537466
327	15932	200	9.6555590937442
328	15930	198	1.9178502808721
328	15931	199	1.8840239265072
328	15932	200	1.9501293399977
329	15930	198	4.0997140834571
329	15931	199	5.0226217989374
329	15932	200	6.1968733187211
330	15931	199	2414.8713181916
330	15932	200	2411.9594073247
331	15931	199	1578.4526660144
331	15932	200	1579.5219044872
332	15932	200	3.9654431967067

