version 2
run WithChannelSwitching-0-20220914-10:53:19-3358275
attr configname WithChannelSwitching
attr datetime 20220914-10:53:19
attr experiment WithChannelSwitching
attr inifile omnetpp.ini
attr iterationvars ""
attr iterationvarsf ""
attr measurement ""
attr network RSUExampleScenario
attr processid 3358275
attr repetition 0
attr replication #0
attr resultdir results
attr runnumber 0
attr seedset 0
param *.**.nic.mac1609_4.useServiceChannel true
param *.node[*].appl.dataOnSch true
param *.rsu[*].appl.dataOnSch true
param *.playgroundSizeX 2500m
param *.playgroundSizeY 2500m
param *.playgroundSizeZ 50m
param *.annotations.draw true
param *.obstacles.obstacles "xmldoc(\"config.xml\", \"//AnalogueModel[@type='SimpleObstacleShadowing']/obstacles\")"
param *.manager.updateInterval 1s
param *.manager.host "\"localhost\""
param *.manager.port 9999
param *.manager.autoShutdown true
param *.manager.launchConfig "xmldoc(\"erlangen.launchd.xml\")"
param *.rsu[0].mobility.x 2000
param *.rsu[0].mobility.y 2000
param *.rsu[0].mobility.z 3
param *.rsu[*].applType "\"TraCIDemoRSU11p\""
param *.rsu[*].appl.headerLength "80 bit"
param *.rsu[*].appl.sendBeacons false
param *.rsu[*].appl.dataOnSch false
param *.rsu[*].appl.beaconInterval 1s
param *.rsu[*].appl.beaconUserPriority 7
param *.rsu[*].appl.dataUserPriority 5
param *.rsu[*].nic.phy80211p.antennaOffsetZ "0 m"
param *.connectionManager.sendDirect true
param *.connectionManager.maxInterfDist 2600m
param *.connectionManager.drawMaxIntfDist false
param *.**.nic.mac1609_4.useServiceChannel false
param *.**.nic.mac1609_4.txPower 20mW
param *.**.nic.mac1609_4.bitrate 6Mbps
param *.**.nic.phy80211p.minPowerLevel -110dBm
param *.**.nic.phy80211p.useNoiseFloor true
param *.**.nic.phy80211p.noiseFloor -98dBm
param *.**.nic.phy80211p.decider "xmldoc(\"config.xml\")"
param *.**.nic.phy80211p.analogueModels "xmldoc(\"config.xml\")"
param *.**.nic.phy80211p.usePropagationDelay true
param *.**.nic.phy80211p.antenna "xmldoc(\"antenna.xml\", \"/root/Antenna[@id='monopole']\")"
param *.node[*].nic.phy80211p.antennaOffsetY "0 m"
param *.node[*].nic.phy80211p.antennaOffsetZ "1.895 m"
param *.node[*].applType "\"TraCIDemo11p\""
param *.node[*].appl.headerLength "80 bit"
param *.node[*].appl.sendBeacons false
param *.node[*].appl.dataOnSch false
param *.node[*].appl.beaconInterval 1s
param *.node[*].veinsmobility.x 0
param *.node[*].veinsmobility.y 0
param *.node[*].veinsmobility.z 0
param *.node[*].veinsmobility.setHostSpeed false
param *.node[*0].veinsmobility.accidentCount 1
param *.node[*0].veinsmobility.accidentStart 73s
param *.node[*0].veinsmobility.accidentDuration 50s

vector 0 RSUExampleScenario.node[0].veinsmobility posx ETV
vector 1 RSUExampleScenario.node[0].veinsmobility posy ETV
vector 2 RSUExampleScenario.node[0].veinsmobility speed ETV
vector 3 RSUExampleScenario.node[0].veinsmobility acceleration ETV
vector 4 RSUExampleScenario.node[0].veinsmobility co2emission ETV
vector 5 RSUExampleScenario.node[1].veinsmobility posx ETV
vector 6 RSUExampleScenario.node[1].veinsmobility posy ETV
vector 7 RSUExampleScenario.node[1].veinsmobility speed ETV
vector 8 RSUExampleScenario.node[1].veinsmobility acceleration ETV
vector 9 RSUExampleScenario.node[1].veinsmobility co2emission ETV
vector 10 RSUExampleScenario.node[2].veinsmobility posx ETV
vector 11 RSUExampleScenario.node[2].veinsmobility posy ETV
vector 12 RSUExampleScenario.node[2].veinsmobility speed ETV
vector 13 RSUExampleScenario.node[2].veinsmobility acceleration ETV
vector 14 RSUExampleScenario.node[2].veinsmobility co2emission ETV
vector 15 RSUExampleScenario.node[3].veinsmobility posx ETV
vector 16 RSUExampleScenario.node[3].veinsmobility posy ETV
vector 17 RSUExampleScenario.node[3].veinsmobility speed ETV
vector 18 RSUExampleScenario.node[3].veinsmobility acceleration ETV
vector 19 RSUExampleScenario.node[3].veinsmobility co2emission ETV
vector 20 RSUExampleScenario.node[4].veinsmobility posx ETV
vector 21 RSUExampleScenario.node[4].veinsmobility posy ETV
vector 22 RSUExampleScenario.node[4].veinsmobility speed ETV
vector 23 RSUExampleScenario.node[4].veinsmobility acceleration ETV
vector 24 RSUExampleScenario.node[4].veinsmobility co2emission ETV
vector 25 RSUExampleScenario.node[5].veinsmobility posx ETV
vector 26 RSUExampleScenario.node[5].veinsmobility posy ETV
vector 27 RSUExampleScenario.node[5].veinsmobility speed ETV
vector 28 RSUExampleScenario.node[5].veinsmobility acceleration ETV
vector 29 RSUExampleScenario.node[5].veinsmobility co2emission ETV
vector 30 RSUExampleScenario.node[6].veinsmobility posx ETV
vector 31 RSUExampleScenario.node[6].veinsmobility posy ETV
vector 32 RSUExampleScenario.node[6].veinsmobility speed ETV
vector 33 RSUExampleScenario.node[6].veinsmobility acceleration ETV
vector 34 RSUExampleScenario.node[6].veinsmobility co2emission ETV
vector 35 RSUExampleScenario.node[7].veinsmobility posx ETV
vector 36 RSUExampleScenario.node[7].veinsmobility posy ETV
vector 37 RSUExampleScenario.node[7].veinsmobility speed ETV
vector 38 RSUExampleScenario.node[7].veinsmobility acceleration ETV
vector 39 RSUExampleScenario.node[7].veinsmobility co2emission ETV
vector 40 RSUExampleScenario.node[8].veinsmobility posx ETV
vector 41 RSUExampleScenario.node[8].veinsmobility posy ETV
vector 42 RSUExampleScenario.node[8].veinsmobility speed ETV
vector 43 RSUExampleScenario.node[8].veinsmobility acceleration ETV
vector 44 RSUExampleScenario.node[8].veinsmobility co2emission ETV
vector 45 RSUExampleScenario.node[9].veinsmobility posx ETV
vector 46 RSUExampleScenario.node[9].veinsmobility posy ETV
vector 47 RSUExampleScenario.node[9].veinsmobility speed ETV
vector 48 RSUExampleScenario.node[9].veinsmobility acceleration ETV
vector 49 RSUExampleScenario.node[9].veinsmobility co2emission ETV
vector 50 RSUExampleScenario.node[10].veinsmobility posx ETV
vector 51 RSUExampleScenario.node[10].veinsmobility posy ETV
vector 52 RSUExampleScenario.node[10].veinsmobility speed ETV
vector 53 RSUExampleScenario.node[10].veinsmobility acceleration ETV
vector 54 RSUExampleScenario.node[10].veinsmobility co2emission ETV
vector 55 RSUExampleScenario.node[11].veinsmobility posx ETV
vector 56 RSUExampleScenario.node[11].veinsmobility posy ETV
vector 57 RSUExampleScenario.node[11].veinsmobility speed ETV
vector 58 RSUExampleScenario.node[11].veinsmobility acceleration ETV
vector 59 RSUExampleScenario.node[11].veinsmobility co2emission ETV
vector 60 RSUExampleScenario.node[12].veinsmobility posx ETV
vector 61 RSUExampleScenario.node[12].veinsmobility posy ETV
vector 62 RSUExampleScenario.node[12].veinsmobility speed ETV
vector 63 RSUExampleScenario.node[12].veinsmobility acceleration ETV
vector 64 RSUExampleScenario.node[12].veinsmobility co2emission ETV
vector 65 RSUExampleScenario.node[13].veinsmobility posx ETV
vector 66 RSUExampleScenario.node[13].veinsmobility posy ETV
vector 67 RSUExampleScenario.node[13].veinsmobility speed ETV
vector 68 RSUExampleScenario.node[13].veinsmobility acceleration ETV
vector 69 RSUExampleScenario.node[13].veinsmobility co2emission ETV
vector 70 RSUExampleScenario.node[14].veinsmobility posx ETV
vector 71 RSUExampleScenario.node[14].veinsmobility posy ETV
vector 72 RSUExampleScenario.node[14].veinsmobility speed ETV
vector 73 RSUExampleScenario.node[14].veinsmobility acceleration ETV
vector 74 RSUExampleScenario.node[14].veinsmobility co2emission ETV
vector 75 RSUExampleScenario.node[15].veinsmobility posx ETV
vector 76 RSUExampleScenario.node[15].veinsmobility posy ETV
vector 77 RSUExampleScenario.node[15].veinsmobility speed ETV
vector 78 RSUExampleScenario.node[15].veinsmobility acceleration ETV
vector 79 RSUExampleScenario.node[15].veinsmobility co2emission ETV
vector 80 RSUExampleScenario.node[16].veinsmobility posx ETV
vector 81 RSUExampleScenario.node[16].veinsmobility posy ETV
vector 82 RSUExampleScenario.node[16].veinsmobility speed ETV
vector 83 RSUExampleScenario.node[16].veinsmobility acceleration ETV
vector 84 RSUExampleScenario.node[16].veinsmobility co2emission ETV
vector 85 RSUExampleScenario.node[17].veinsmobility posx ETV
vector 86 RSUExampleScenario.node[17].veinsmobility posy ETV
vector 87 RSUExampleScenario.node[17].veinsmobility speed ETV
vector 88 RSUExampleScenario.node[17].veinsmobility acceleration ETV
vector 89 RSUExampleScenario.node[17].veinsmobility co2emission ETV
vector 90 RSUExampleScenario.node[18].veinsmobility posx ETV
vector 91 RSUExampleScenario.node[18].veinsmobility posy ETV
vector 92 RSUExampleScenario.node[18].veinsmobility speed ETV
vector 93 RSUExampleScenario.node[18].veinsmobility acceleration ETV
vector 94 RSUExampleScenario.node[18].veinsmobility co2emission ETV
vector 95 RSUExampleScenario.node[19].veinsmobility posx ETV
vector 96 RSUExampleScenario.node[19].veinsmobility posy ETV
vector 97 RSUExampleScenario.node[19].veinsmobility speed ETV
vector 98 RSUExampleScenario.node[19].veinsmobility acceleration ETV
vector 99 RSUExampleScenario.node[19].veinsmobility co2emission ETV
vector 100 RSUExampleScenario.node[20].veinsmobility posx ETV
vector 101 RSUExampleScenario.node[20].veinsmobility posy ETV
vector 102 RSUExampleScenario.node[20].veinsmobility speed ETV
vector 103 RSUExampleScenario.node[20].veinsmobility acceleration ETV
vector 104 RSUExampleScenario.node[20].veinsmobility co2emission ETV
vector 105 RSUExampleScenario.node[21].veinsmobility posx ETV
vector 106 RSUExampleScenario.node[21].veinsmobility posy ETV
vector 107 RSUExampleScenario.node[21].veinsmobility speed ETV
vector 108 RSUExampleScenario.node[21].veinsmobility acceleration ETV
vector 109 RSUExampleScenario.node[21].veinsmobility co2emission ETV
vector 110 RSUExampleScenario.node[22].veinsmobility posx ETV
vector 111 RSUExampleScenario.node[22].veinsmobility posy ETV
vector 112 RSUExampleScenario.node[22].veinsmobility speed ETV
vector 113 RSUExampleScenario.node[22].veinsmobility acceleration ETV
vector 114 RSUExampleScenario.node[22].veinsmobility co2emission ETV
vector 115 RSUExampleScenario.node[23].veinsmobility posx ETV
vector 116 RSUExampleScenario.node[23].veinsmobility posy ETV
vector 117 RSUExampleScenario.node[23].veinsmobility speed ETV
vector 118 RSUExampleScenario.node[23].veinsmobility acceleration ETV
vector 119 RSUExampleScenario.node[23].veinsmobility co2emission ETV
vector 120 RSUExampleScenario.node[24].veinsmobility posx ETV
vector 121 RSUExampleScenario.node[24].veinsmobility posy ETV
vector 122 RSUExampleScenario.node[24].veinsmobility speed ETV
vector 123 RSUExampleScenario.node[24].veinsmobility acceleration ETV
vector 124 RSUExampleScenario.node[24].veinsmobility co2emission ETV
vector 125 RSUExampleScenario.node[25].veinsmobility posx ETV
vector 126 RSUExampleScenario.node[25].veinsmobility posy ETV
vector 127 RSUExampleScenario.node[25].veinsmobility speed ETV
vector 128 RSUExampleScenario.node[25].veinsmobility acceleration ETV
vector 129 RSUExampleScenario.node[25].veinsmobility co2emission ETV
vector 130 RSUExampleScenario.node[26].veinsmobility posx ETV
vector 131 RSUExampleScenario.node[26].veinsmobility posy ETV
vector 132 RSUExampleScenario.node[26].veinsmobility speed ETV
vector 133 RSUExampleScenario.node[26].veinsmobility acceleration ETV
vector 134 RSUExampleScenario.node[26].veinsmobility co2emission ETV
vector 135 RSUExampleScenario.node[27].veinsmobility posx ETV
vector 136 RSUExampleScenario.node[27].veinsmobility posy ETV
vector 137 RSUExampleScenario.node[27].veinsmobility speed ETV
vector 138 RSUExampleScenario.node[27].veinsmobility acceleration ETV
vector 139 RSUExampleScenario.node[27].veinsmobility co2emission ETV
vector 140 RSUExampleScenario.node[28].veinsmobility posx ETV
vector 141 RSUExampleScenario.node[28].veinsmobility posy ETV
vector 142 RSUExampleScenario.node[28].veinsmobility speed ETV
vector 143 RSUExampleScenario.node[28].veinsmobility acceleration ETV
vector 144 RSUExampleScenario.node[28].veinsmobility co2emission ETV
vector 145 RSUExampleScenario.node[29].veinsmobility posx ETV
vector 146 RSUExampleScenario.node[29].veinsmobility posy ETV
vector 147 RSUExampleScenario.node[29].veinsmobility speed ETV
vector 148 RSUExampleScenario.node[29].veinsmobility acceleration ETV
vector 149 RSUExampleScenario.node[29].veinsmobility co2emission ETV
vector 150 RSUExampleScenario.node[30].veinsmobility posx ETV
vector 151 RSUExampleScenario.node[30].veinsmobility posy ETV
vector 152 RSUExampleScenario.node[30].veinsmobility speed ETV
vector 153 RSUExampleScenario.node[30].veinsmobility acceleration ETV
vector 154 RSUExampleScenario.node[30].veinsmobility co2emission ETV
vector 155 RSUExampleScenario.node[31].veinsmobility posx ETV
vector 156 RSUExampleScenario.node[31].veinsmobility posy ETV
vector 157 RSUExampleScenario.node[31].veinsmobility speed ETV
vector 158 RSUExampleScenario.node[31].veinsmobility acceleration ETV
vector 159 RSUExampleScenario.node[31].veinsmobility co2emission ETV
vector 160 RSUExampleScenario.node[32].veinsmobility posx ETV
vector 161 RSUExampleScenario.node[32].veinsmobility posy ETV
vector 162 RSUExampleScenario.node[32].veinsmobility speed ETV
vector 163 RSUExampleScenario.node[32].veinsmobility acceleration ETV
vector 164 RSUExampleScenario.node[32].veinsmobility co2emission ETV
vector 165 RSUExampleScenario.node[33].veinsmobility posx ETV
vector 166 RSUExampleScenario.node[33].veinsmobility posy ETV
vector 167 RSUExampleScenario.node[33].veinsmobility speed ETV
vector 168 RSUExampleScenario.node[33].veinsmobility acceleration ETV
vector 169 RSUExampleScenario.node[33].veinsmobility co2emission ETV
vector 170 RSUExampleScenario.node[34].veinsmobility posx ETV
vector 171 RSUExampleScenario.node[34].veinsmobility posy ETV
vector 172 RSUExampleScenario.node[34].veinsmobility speed ETV
vector 173 RSUExampleScenario.node[34].veinsmobility acceleration ETV
vector 174 RSUExampleScenario.node[34].veinsmobility co2emission ETV
vector 175 RSUExampleScenario.node[35].veinsmobility posx ETV
vector 176 RSUExampleScenario.node[35].veinsmobility posy ETV
vector 177 RSUExampleScenario.node[35].veinsmobility speed ETV
vector 178 RSUExampleScenario.node[35].veinsmobility acceleration ETV
vector 179 RSUExampleScenario.node[35].veinsmobility co2emission ETV
vector 180 RSUExampleScenario.node[36].veinsmobility posx ETV
vector 181 RSUExampleScenario.node[36].veinsmobility posy ETV
vector 182 RSUExampleScenario.node[36].veinsmobility speed ETV
vector 183 RSUExampleScenario.node[36].veinsmobility acceleration ETV
vector 184 RSUExampleScenario.node[36].veinsmobility co2emission ETV
vector 185 RSUExampleScenario.node[37].veinsmobility posx ETV
vector 186 RSUExampleScenario.node[37].veinsmobility posy ETV
vector 187 RSUExampleScenario.node[37].veinsmobility speed ETV
vector 188 RSUExampleScenario.node[37].veinsmobility acceleration ETV
vector 189 RSUExampleScenario.node[37].veinsmobility co2emission ETV
vector 190 RSUExampleScenario.node[38].veinsmobility posx ETV
vector 191 RSUExampleScenario.node[38].veinsmobility posy ETV
vector 192 RSUExampleScenario.node[38].veinsmobility speed ETV
vector 193 RSUExampleScenario.node[38].veinsmobility acceleration ETV
vector 194 RSUExampleScenario.node[38].veinsmobility co2emission ETV
vector 195 RSUExampleScenario.node[39].veinsmobility posx ETV
vector 196 RSUExampleScenario.node[39].veinsmobility posy ETV
vector 197 RSUExampleScenario.node[39].veinsmobility speed ETV
vector 198 RSUExampleScenario.node[39].veinsmobility acceleration ETV
vector 199 RSUExampleScenario.node[39].veinsmobility co2emission ETV
vector 200 RSUExampleScenario.node[40].veinsmobility posx ETV
vector 201 RSUExampleScenario.node[40].veinsmobility posy ETV
vector 202 RSUExampleScenario.node[40].veinsmobility speed ETV
vector 203 RSUExampleScenario.node[40].veinsmobility acceleration ETV
vector 204 RSUExampleScenario.node[40].veinsmobility co2emission ETV
vector 205 RSUExampleScenario.node[41].veinsmobility posx ETV
vector 206 RSUExampleScenario.node[41].veinsmobility posy ETV
vector 207 RSUExampleScenario.node[41].veinsmobility speed ETV
vector 208 RSUExampleScenario.node[41].veinsmobility acceleration ETV
vector 209 RSUExampleScenario.node[41].veinsmobility co2emission ETV
vector 210 RSUExampleScenario.node[42].veinsmobility posx ETV
vector 211 RSUExampleScenario.node[42].veinsmobility posy ETV
vector 212 RSUExampleScenario.node[42].veinsmobility speed ETV
vector 213 RSUExampleScenario.node[42].veinsmobility acceleration ETV
vector 214 RSUExampleScenario.node[42].veinsmobility co2emission ETV
vector 215 RSUExampleScenario.node[43].veinsmobility posx ETV
vector 216 RSUExampleScenario.node[43].veinsmobility posy ETV
vector 217 RSUExampleScenario.node[43].veinsmobility speed ETV
vector 218 RSUExampleScenario.node[43].veinsmobility acceleration ETV
vector 219 RSUExampleScenario.node[43].veinsmobility co2emission ETV
vector 220 RSUExampleScenario.node[44].veinsmobility posx ETV
vector 221 RSUExampleScenario.node[44].veinsmobility posy ETV
vector 222 RSUExampleScenario.node[44].veinsmobility speed ETV
vector 223 RSUExampleScenario.node[44].veinsmobility acceleration ETV
vector 224 RSUExampleScenario.node[44].veinsmobility co2emission ETV
vector 225 RSUExampleScenario.node[45].veinsmobility posx ETV
vector 226 RSUExampleScenario.node[45].veinsmobility posy ETV
vector 227 RSUExampleScenario.node[45].veinsmobility speed ETV
vector 228 RSUExampleScenario.node[45].veinsmobility acceleration ETV
vector 229 RSUExampleScenario.node[45].veinsmobility co2emission ETV
vector 230 RSUExampleScenario.node[46].veinsmobility posx ETV
vector 231 RSUExampleScenario.node[46].veinsmobility posy ETV
vector 232 RSUExampleScenario.node[46].veinsmobility speed ETV
vector 233 RSUExampleScenario.node[46].veinsmobility acceleration ETV
vector 234 RSUExampleScenario.node[46].veinsmobility co2emission ETV
vector 235 RSUExampleScenario.node[47].veinsmobility posx ETV
vector 236 RSUExampleScenario.node[47].veinsmobility posy ETV
vector 237 RSUExampleScenario.node[47].veinsmobility speed ETV
vector 238 RSUExampleScenario.node[47].veinsmobility acceleration ETV
vector 239 RSUExampleScenario.node[47].veinsmobility co2emission ETV
vector 240 RSUExampleScenario.node[48].veinsmobility posx ETV
vector 241 RSUExampleScenario.node[48].veinsmobility posy ETV
vector 242 RSUExampleScenario.node[48].veinsmobility speed ETV
vector 243 RSUExampleScenario.node[48].veinsmobility acceleration ETV
vector 244 RSUExampleScenario.node[48].veinsmobility co2emission ETV
vector 245 RSUExampleScenario.node[49].veinsmobility posx ETV
vector 246 RSUExampleScenario.node[49].veinsmobility posy ETV
vector 247 RSUExampleScenario.node[49].veinsmobility speed ETV
vector 248 RSUExampleScenario.node[49].veinsmobility acceleration ETV
vector 249 RSUExampleScenario.node[49].veinsmobility co2emission ETV
vector 250 RSUExampleScenario.node[50].veinsmobility posx ETV
vector 251 RSUExampleScenario.node[50].veinsmobility posy ETV
vector 252 RSUExampleScenario.node[50].veinsmobility speed ETV
vector 253 RSUExampleScenario.node[50].veinsmobility acceleration ETV
vector 254 RSUExampleScenario.node[50].veinsmobility co2emission ETV
vector 255 RSUExampleScenario.node[51].veinsmobility posx ETV
vector 256 RSUExampleScenario.node[51].veinsmobility posy ETV
vector 257 RSUExampleScenario.node[51].veinsmobility speed ETV
vector 258 RSUExampleScenario.node[51].veinsmobility acceleration ETV
vector 259 RSUExampleScenario.node[51].veinsmobility co2emission ETV
vector 260 RSUExampleScenario.node[52].veinsmobility posx ETV
vector 261 RSUExampleScenario.node[52].veinsmobility posy ETV
vector 262 RSUExampleScenario.node[52].veinsmobility speed ETV
vector 263 RSUExampleScenario.node[52].veinsmobility acceleration ETV
vector 264 RSUExampleScenario.node[52].veinsmobility co2emission ETV
vector 265 RSUExampleScenario.node[53].veinsmobility posx ETV
vector 266 RSUExampleScenario.node[53].veinsmobility posy ETV
vector 267 RSUExampleScenario.node[53].veinsmobility speed ETV
vector 268 RSUExampleScenario.node[53].veinsmobility acceleration ETV
vector 269 RSUExampleScenario.node[53].veinsmobility co2emission ETV
vector 270 RSUExampleScenario.node[54].veinsmobility posx ETV
vector 271 RSUExampleScenario.node[54].veinsmobility posy ETV
vector 272 RSUExampleScenario.node[54].veinsmobility speed ETV
vector 273 RSUExampleScenario.node[54].veinsmobility acceleration ETV
vector 274 RSUExampleScenario.node[54].veinsmobility co2emission ETV
vector 275 RSUExampleScenario.node[55].veinsmobility posx ETV
vector 276 RSUExampleScenario.node[55].veinsmobility posy ETV
vector 277 RSUExampleScenario.node[55].veinsmobility speed ETV
vector 278 RSUExampleScenario.node[55].veinsmobility acceleration ETV
vector 279 RSUExampleScenario.node[55].veinsmobility co2emission ETV
vector 280 RSUExampleScenario.node[56].veinsmobility posx ETV
vector 281 RSUExampleScenario.node[56].veinsmobility posy ETV
vector 282 RSUExampleScenario.node[56].veinsmobility speed ETV
vector 283 RSUExampleScenario.node[56].veinsmobility acceleration ETV
vector 284 RSUExampleScenario.node[56].veinsmobility co2emission ETV
vector 285 RSUExampleScenario.node[57].veinsmobility posx ETV
vector 286 RSUExampleScenario.node[57].veinsmobility posy ETV
vector 287 RSUExampleScenario.node[57].veinsmobility speed ETV
vector 288 RSUExampleScenario.node[57].veinsmobility acceleration ETV
vector 289 RSUExampleScenario.node[57].veinsmobility co2emission ETV
vector 290 RSUExampleScenario.node[58].veinsmobility posx ETV
vector 291 RSUExampleScenario.node[58].veinsmobility posy ETV
vector 292 RSUExampleScenario.node[58].veinsmobility speed ETV
vector 293 RSUExampleScenario.node[58].veinsmobility acceleration ETV
vector 294 RSUExampleScenario.node[58].veinsmobility co2emission ETV
vector 295 RSUExampleScenario.node[59].veinsmobility posx ETV
vector 296 RSUExampleScenario.node[59].veinsmobility posy ETV
vector 297 RSUExampleScenario.node[59].veinsmobility speed ETV
vector 298 RSUExampleScenario.node[59].veinsmobility acceleration ETV
vector 299 RSUExampleScenario.node[59].veinsmobility co2emission ETV
vector 300 RSUExampleScenario.node[60].veinsmobility posx ETV
vector 301 RSUExampleScenario.node[60].veinsmobility posy ETV
vector 302 RSUExampleScenario.node[60].veinsmobility speed ETV
vector 303 RSUExampleScenario.node[60].veinsmobility acceleration ETV
vector 304 RSUExampleScenario.node[60].veinsmobility co2emission ETV
vector 305 RSUExampleScenario.node[61].veinsmobility posx ETV
vector 306 RSUExampleScenario.node[61].veinsmobility posy ETV
vector 307 RSUExampleScenario.node[61].veinsmobility speed ETV
vector 308 RSUExampleScenario.node[61].veinsmobility acceleration ETV
vector 309 RSUExampleScenario.node[61].veinsmobility co2emission ETV
vector 310 RSUExampleScenario.node[62].veinsmobility posx ETV
vector 311 RSUExampleScenario.node[62].veinsmobility posy ETV
vector 312 RSUExampleScenario.node[62].veinsmobility speed ETV
vector 313 RSUExampleScenario.node[62].veinsmobility acceleration ETV
vector 314 RSUExampleScenario.node[62].veinsmobility co2emission ETV
vector 315 RSUExampleScenario.node[63].veinsmobility posx ETV
vector 316 RSUExampleScenario.node[63].veinsmobility posy ETV
vector 317 RSUExampleScenario.node[63].veinsmobility speed ETV
vector 318 RSUExampleScenario.node[63].veinsmobility acceleration ETV
vector 319 RSUExampleScenario.node[63].veinsmobility co2emission ETV
vector 320 RSUExampleScenario.node[64].veinsmobility posx ETV
vector 321 RSUExampleScenario.node[64].veinsmobility posy ETV
vector 322 RSUExampleScenario.node[64].veinsmobility speed ETV
vector 323 RSUExampleScenario.node[64].veinsmobility acceleration ETV
vector 324 RSUExampleScenario.node[64].veinsmobility co2emission ETV
vector 325 RSUExampleScenario.node[65].veinsmobility posx ETV
vector 326 RSUExampleScenario.node[65].veinsmobility posy ETV
vector 327 RSUExampleScenario.node[65].veinsmobility speed ETV
vector 328 RSUExampleScenario.node[65].veinsmobility acceleration ETV
vector 329 RSUExampleScenario.node[65].veinsmobility co2emission ETV
vector 330 RSUExampleScenario.node[66].veinsmobility posx ETV
vector 331 RSUExampleScenario.node[66].veinsmobility posy ETV
vector 332 RSUExampleScenario.node[66].veinsmobility speed ETV
0	21	1	2414.8476884116
0	61	2	2411.8243290941
0	102	3	2407.1592244543
0	143	4	2402.288200066
0	203	5	2396.1394374635
0	264	6	2388.6993875942
0	325	7	2379.889221533
0	405	8	2370.1207192459
0	486	9	2360.3141803208
0	567	10	2350.5099475634
0	667	11	2341.0010868867
0	768	12	2334.5620136983
0	869	13	2337.6803779466
0	989	14	2348.3497968862
0	1110	15	2358.6961674725
0	1231	16	2371.6616533546
0	1371	17	2385.4706804305
0	1512	18	2399.3588350668
0	1653	19	2412.4541998667
0	1813	20	2421.4418196582
0	1974	21	2428.417609864
0	2135	22	2431.468930052
0	2315	23	2433.1513403206
0	2496	24	2435.1237040944
0	2677	25	2437.2173147583
0	2877	26	2438.6437980286
0	3078	27	2439.5074353185
0	3279	28	2440.517813261
0	3499	29	2441.5286354903
0	3720	30	2442.5392864447
0	3941	31	2443.5505626462
0	4181	32	2444.5611125134
0	4422	33	2445.5724211388
0	4663	34	2446.5834693939
0	4923	35	2447.5934051003
0	5184	36	2448.6036931522
0	5445	37	2449.6148620235
0	5725	38	2450.6248001783
0	6006	39	2449.5880553933
0	6287	40	2448.4757357414
0	6587	41	2447.3635385588
0	6888	42	2446.250303259
0	7189	43	2445.1365203297
0	7509	44	2444.0235521834
0	7830	45	2442.9111769209
0	8151	46	2441.7982721732
0	8491	47	2440.6856421625
0	8832	48	2439.7151308154
0	9173	49	2438.7725309408
0	9533	50	2437.9056889905
0	9894	51	2432.8785054281
0	10255	52	2422.5273191113
0	10635	53	2409.439604845
0	11016	54	2395.517893619
0	11397	55	2381.592286239
0	11797	56	2367.6659531716
0	12198	57	2353.7601239877
0	12599	58	2339.8337569573
0	13019	59	2325.9069679289
0	13440	60	2311.9542202253
0	13861	61	2298.0325140053
0	14301	62	2284.0857072632
0	14742	63	2270.1754193477
0	15183	64	2256.2378749268
0	15643	65	2242.3725172955
0	16104	66	2228.5623045168
0	16565	67	2214.8068758136
0	17045	68	2201.6159272967
0	17526	69	2188.41049514
0	18007	70	2175.4595331684
0	18507	71	2163.4460695032
0	19008	72	2152.2029822947
0	19509	73	2144.5427125699
0	20030	74	2140.7603855053
0	20551	75	2140.3234504706
0	21072	76	2140.3234504706
0	21612	77	2140.3234504706
0	22153	78	2140.3234504706
0	22694	79	2140.3234504706
0	23254	80	2140.3234504706
0	23815	81	2140.3234504706
0	24376	82	2140.3234504706
0	24956	83	2140.3234504706
0	25537	84	2140.3234504706
0	28833	85	2140.3234504706
0	33647	86	2140.3234504706
0	40102	87	2140.3234504706
0	43047	88	2140.3234504706
0	48639	89	2140.3234504706
0	50755	90	2140.3234504706
0	52066	91	2140.3234504706
0	52782	92	2140.3234504706
0	53554	93	2140.3234504706
0	54195	94	2140.3234504706
0	54855	95	2140.3234504706
0	55516	96	2140.3234504706
0	56177	97	2140.3234504706
0	56857	98	2140.3234504706
0	57538	99	2140.3234504706
0	58219	100	2140.3234504706
0	58919	101	2140.3234504706
0	59620	102	2140.3234504706
0	60321	103	2140.3234504706
0	61042	104	2140.3234504706
0	61763	105	2140.3234504706
0	62484	106	2140.3234504706
0	63224	107	2140.3234504706
0	63965	108	2140.3234504706
0	64706	109	2140.3234504706
0	65466	110	2140.3234504706
0	66227	111	2140.3234504706
0	66988	112	2140.3234504706
0	67768	113	2140.3234504706
0	68549	114	2140.3234504706
0	69330	115	2140.3234504706
0	70130	116	2140.3234504706
0	70931	117	2140.3234504706
0	71732	118	2140.3234504706
0	72552	119	2140.3234504706
0	73373	120	2140.3234504706
0	74194	121	2140.3234504706
0	75034	122	2140.3234504706
0	75875	123	2140.3234504706
0	76717	124	2139.2991757134
0	77577	125	2136.740978117
0	78438	126	2133.0437330272
0	79299	127	2128.0124995244
0	80179	128	2121.6776393328
0	81060	129	2113.9053156064
0	81941	130	2104.7718132839
0	82841	131	2095.2426245916
0	83742	132	2085.7055441276
0	84643	133	2076.184415311
0	85564	134	2066.655969861
0	86485	135	2057.1336877497
0	87406	136	2047.5928952894
0	88346	137	2037.6052178263
0	89287	138	2027.631729265
0	90228	139	2017.6146613889
0	91188	140	2007.6105792237
0	92149	141	1997.6002182011
0	93110	142	1987.6009788642
0	94090	143	1977.6126411132
0	95071	144	1967.6241748743
0	96052	145	1957.6315686307
0	97052	146	1947.6459181812
0	98053	147	1937.6582154317
0	99054	148	1927.928336862
0	100074	149	1918.2020256331
0	101095	150	1908.4694342383
0	102116	151	1898.729315949
0	103156	152	1889.0051916379
0	104197	153	1879.261754136
0	105239	154	1869.5281309806
0	106299	155	1859.7936109763
0	107360	156	1850.060784751
0	108421	157	1840.3252135735
0	109501	158	1830.3508783798
0	110582	159	1820.2469987283
0	111663	160	1810.1380447441
0	112763	161	1800.1588395836
0	113864	162	1790.1967647249
0	114965	163	1780.2514425659
0	116086	164	1770.2963918832
0	117207	165	1760.3474435109
0	118328	166	1750.3920021198
0	119468	167	1740.4321024349
0	120609	168	1730.4736489538
0	121750	169	1720.5248935258
0	122910	170	1710.5761599386
0	124071	171	1700.6158889014
0	125232	172	1690.6676647231
0	126412	173	1680.7271906608
0	127593	174	1670.7628719405
0	129219	175	1660.8197170426
0	136505	176	1650.8730225366
0	146014	177	1640.9069306322
0	150721	178	1630.9622310679
0	159824	179	1621.0131410429
0	161856	180	1611.2234621063
0	164535	181	1601.4105973039
0	165775	182	1591.5875026872
0	167016	183	1581.773858707
0	168258	184	1571.9569451315
0	169518	185	1562.134478421
0	170779	186	1551.7112002999
0	172040	187	1541.175700404
0	173320	188	1530.6188701534
0	174601	189	1520.0613357038
0	175882	190	1509.5105544658
0	177182	191	1498.4885757907
0	178483	192	1487.0678394384
0	179784	193	1475.6648106688
0	181105	194	1464.2628301153
0	182426	195	1452.8377002759
0	183747	196	1440.6556722911
0	185087	197	1428.0474191858
0	186428	198	1415.4089725766
0	187769	199	1402.7771531333
0	189129	200	1389.5143186213
1	21	1	1578.4613427464
1	61	2	1579.5715045081
1	102	3	1581.5561876604
1	143	4	1586.4898643075
1	203	5	1592.7177137369
1	264	6	1600.2534592729
1	325	7	1609.1769437566
1	405	8	1619.0710908128
1	486	9	1629.0037637418
1	567	10	1638.9341008412
1	667	11	1649.1129276818
1	768	12	1661.0453354148
1	869	13	1673.5713017788
1	989	14	1682.4825292248
1	1110	15	1691.8131453674
1	1231	16	1695.5671389326
1	1371	17	1697.3762977775
1	1512	18	1698.7149431584
1	1653	19	1699.9531973498
1	1813	20	1700.8030368192
1	1974	21	1701.4822415169
1	2135	22	1709.488976148
1	2315	23	1720.5600911779
1	2496	24	1733.5392477075
1	2677	25	1747.3162704222
1	2877	26	1761.1584832035
1	3078	27	1775.0702432813
1	3279	28	1788.9649324082
1	3499	29	1802.8657313576
1	3720	30	1816.7641749373
1	3941	31	1830.6712168986
1	4181	32	1844.5682703312
1	4422	33	1858.4757581847
1	4663	34	1872.3796654344
1	4923	35	1886.2682729438
1	5184	36	1900.1617258992
1	5445	37	1914.0672918586
1	5725	38	1927.95593304
1	6006	39	1941.8192613758
1	6287	40	1955.7024557721
1	6587	41	1969.5841215905
1	6888	42	1983.4787444612
1	7189	43	1997.3802024601
1	7509	44	2011.2714909082
1	7830	45	2025.1553793969
1	8151	46	2039.0458765477
1	8491	47	2052.9329446238
1	8832	48	2066.8462265795
1	9173	49	2080.7728807703
1	9533	50	2094.6498483503
1	9894	51	2107.3969092406
1	10255	52	2116.410831539
1	10635	53	2120.9360540062
1	11016	54	2120.5048353085
1	11397	55	2120.0344859883
1	11797	56	2119.5641121576
1	12198	57	2119.0944308629
1	12599	58	2118.6240558857
1	13019	59	2118.1536666537
1	13440	60	2117.6824006466
1	13861	61	2117.2121830918
1	14301	62	2116.7411177447
1	14742	63	2116.2712858524
1	15183	64	2115.8005333487
1	15643	65	2114.7955725584
1	16104	66	2112.8371776454
1	16565	67	2110.6451732265
1	17045	68	2106.1714176713
1	17526	69	2101.6927499389
1	18007	70	2096.6090699211
1	18507	71	2089.5369335469
1	19008	72	2082.9183056299
1	19509	73	2078.4088257942
1	20030	74	2076.1822295729
1	20551	75	2075.9250128167
1	21072	76	2075.9250128167
1	21612	77	2075.9250128167
1	22153	78	2075.9250128167
1	22694	79	2075.9250128167
1	23254	80	2075.9250128167
1	23815	81	2075.9250128167
1	24376	82	2075.9250128167
1	24956	83	2075.9250128167
1	25537	84	2075.9250128167
1	28833	85	2075.9250128167
1	33647	86	2075.9250128167
1	40102	87	2075.9250128167
1	43047	88	2075.9250128167
1	48639	89	2075.9250128167
1	50755	90	2075.9250128167
1	52066	91	2075.9250128167
1	52782	92	2075.9250128167
1	53554	93	2075.9250128167
1	54195	94	2075.9250128167
1	54855	95	2075.9250128167
1	55516	96	2075.9250128167
1	56177	97	2075.9250128167
1	56857	98	2075.9250128167
1	57538	99	2075.9250128167
1	58219	100	2075.9250128167
1	58919	101	2075.9250128167
1	59620	102	2075.9250128167
1	60321	103	2075.9250128167
1	61042	104	2075.9250128167
1	61763	105	2075.9250128167
1	62484	106	2075.9250128167
1	63224	107	2075.9250128167
1	63965	108	2075.9250128167
1	64706	109	2075.9250128167
1	65466	110	2075.9250128167
1	66227	111	2075.9250128167
1	66988	112	2075.9250128167
1	67768	113	2075.9250128167
1	68549	114	2075.9250128167
1	69330	115	2075.9250128167
1	70130	116	2075.9250128167
1	70931	117	2075.9250128167
1	71732	118	2075.9250128167
1	72552	119	2075.9250128167
1	73373	120	2075.9250128167
1	74194	121	2075.9250128167
1	75034	122	2075.9250128167
1	75875	123	2075.9250128167
1	76717	124	2075.1267298609
1	77577	125	2072.866368236
1	78438	126	2068.9195549712
1	79299	127	2063.5487075839
1	80179	128	2056.7862372501
1	81060	129	2048.4892729856
1	81941	130	2038.7392490497
1	82841	131	2028.5668294709
1	83742	132	2018.3859854173
1	84643	133	2008.2221697653
1	85564	134	1998.0505435988
1	86485	135	1987.8854968026
1	87406	136	1977.7462070258
1	88346	137	1968.037196531
1	89287	138	1958.3419790519
1	90228	139	1948.6043981677
1	91188	140	1938.8794406792
1	92149	141	1929.1483795205
1	93110	142	1919.4281297401
1	94090	143	1909.7184773795
1	95071	144	1900.0087001156
1	96052	145	1890.2948983582
1	97052	146	1880.5878583211
1	98053	147	1870.8776764767
1	99054	148	1860.9070784971
1	100074	149	1850.9401361141
1	101095	150	1840.9667581934
1	102116	151	1830.9856671607
1	103156	152	1821.0209658006
1	104197	153	1811.0364734372
1	105239	154	1801.0620382298
1	106299	155	1791.0866839848
1	107360	156	1781.1130654234
1	108421	157	1771.1366339987
1	109501	158	1761.3864351111
1	110582	159	1751.7903250856
1	111663	160	1742.1893957369
1	112763	161	1732.4389499296
1	113864	162	1722.675991795
1	114965	163	1712.9294515159
1	116086	164	1703.1733771618
1	117207	165	1693.4232831486
1	118328	166	1683.6668258961
1	119468	167	1673.9059994593
1	120609	168	1664.1465903204
1	121750	169	1654.3966853945
1	122910	170	1644.6468018731
1	124071	171	1634.8856115062
1	125232	172	1625.1362272119
1	126412	173	1615.3944381289
1	127593	174	1605.6292809825
1	129219	175	1595.884864646
1	136505	176	1586.1369794505
1	146014	177	1576.3700845605
1	150721	178	1566.6241544327
1	159824	179	1556.8739215974
1	161856	180	1547.1035578614
1	164535	181	1537.1979243793
1	165775	182	1527.2819643728
1	167016	183	1517.3755443469
1	168258	184	1507.4658238152
1	169518	185	1497.5504976502
1	170779	186	1488.2895413144
1	172040	187	1479.1762772417
1	173320	188	1470.0445622969
1	174601	189	1460.912238217
1	175882	190	1451.7857557014
1	177182	191	1443.2408685256
1	178483	192	1435.1924371999
1	179784	193	1427.1564847762
1	181105	194	1419.1212710524
1	182426	195	1411.0697435439
1	183747	196	1404.3437243653
1	185087	197	1398.3994412022
1	186428	198	1392.4409230193
1	187769	199	1386.4855292775
1	189129	200	1382.138503409
2	61	2	4.1061966058897
2	102	3	6.0195495591482
2	143	4	7.7148368984793
2	203	5	9.5879868385225
2	264	6	11.391389363371
2	325	7	13.513839789145
2	405	8	13.99235115225
2	486	9	13.890224446259
2	567	10	13.976677174468
2	667	11	13.994826577434
2	768	12	13.923680325528
2	869	13	13.923542996629
2	989	14	13.91007151508
2	1110	15	13.964598868005
2	1231	16	13.995233640105
2	1371	17	13.952304350403
2	1512	18	13.956911946491
2	1653	19	11.503494614513
2	1813	20	7.0034946145128
2	1974	21	7.8970062485022
2	2135	22	10.10483181514
2	2315	23	11.990706169653
2	2496	24	13.981089308816
2	2677	25	13.965594365916
2	2877	26	13.989059597438
2	3078	27	13.956378436291
2	3279	28	13.910982951869
2	3499	29	13.88918493646
2	3720	30	13.908189346099
2	3941	31	13.983992603337
2	4181	32	13.971500478752
2	4422	33	13.873081948087
2	4663	34	13.985133641064
2	4923	35	13.886848415199
2	5184	36	13.876205747321
2	5445	37	13.967912819823
2	5725	38	13.871047234884
2	6006	39	13.89239756926
2	6287	40	13.872267716837
2	6587	41	13.999815066161
2	6888	42	13.964707984752
2	7189	43	13.906584702837
2	7509	44	13.922364303169
2	7830	45	13.929034490574
2	8151	46	13.93922677479
2	8491	47	13.924399639922
2	8832	48	13.96850544848
2	9173	49	13.986686690277
2	9533	50	13.935194088209
2	9894	51	13.930097484484
2	10255	52	13.948393711536
2	10635	53	13.882971800906
2	11016	54	13.87138918183
2	11397	55	13.933780807857
2	11797	56	13.942265776542
2	12198	57	13.95140511482
2	12599	58	13.886548467774
2	13019	59	13.920721456567
2	13440	60	13.906796863726
2	13861	61	13.917803910668
2	14301	62	13.924582225601
2	14742	63	13.959688465288
2	15183	64	13.957318032989
2	15643	65	13.940553226951
2	16104	66	13.879855337965
2	16565	67	13.977758804618
2	17045	68	13.914176650653
2	17526	69	13.928041475909
2	18007	70	13.977535404016
2	18507	71	13.928572678084
2	19008	72	11.364046791626
2	19509	73	6.8640467916256
2	20030	74	2.3640467916256
2	20551	75	0
2	21072	76	0
2	21612	77	0
2	22153	78	0
2	22694	79	0
2	23254	80	0
2	23815	81	0
2	24376	82	0
2	24956	83	0
2	25537	84	0
2	28833	85	0
2	33647	86	0
2	40102	87	0
2	43047	88	0
2	48639	89	0
2	50755	90	0
2	52066	91	0
2	52782	92	0
2	53554	93	0
2	54195	94	0
2	54855	95	0
2	55516	96	0
2	56177	97	0
2	56857	98	0
2	57538	99	0
2	58219	100	0
2	58919	101	0
2	59620	102	0
2	60321	103	0
2	61042	104	0
2	61763	105	0
2	62484	106	0
2	63224	107	0
2	63965	108	0
2	64706	109	0
2	65466	110	0
2	66227	111	0
2	66988	112	0
2	67768	113	0
2	68549	114	0
2	69330	115	0
2	70130	116	0
2	70931	117	0
2	71732	118	0
2	72552	119	0
2	73373	120	0
2	74194	121	0
2	75034	122	0
2	75875	123	0
2	76717	124	2.2219942613752
2	77577	125	4.3816652589273
2	78438	126	6.271098397682
2	79299	127	8.1846742143464
2	80179	128	10.238758130733
2	81060	129	12.368734642219
2	81941	130	13.962109271805
2	82841	131	13.914205637665
2	83742	132	13.944517719341
2	84643	133	13.932432430719
2	85564	134	13.953789253703
2	86485	135	13.898576378347
2	87406	136	13.923362842468
2	88346	137	13.87346287617
2	89287	138	13.915164393331
2	90228	139	13.962726174931
2	91188	140	13.991457488488
2	92149	141	13.93669091891
2	93110	142	13.946966261289
2	94090	143	13.874023362922
2	95071	144	13.888220233922
2	96052	145	13.910431938935
2	97052	146	13.915207219925
2	98053	147	13.934733790359
2	99054	148	13.947823643878
2	100074	149	13.938765405121
2	101095	150	13.884018056742
2	102116	151	13.98566509519
2	103156	152	13.928810386665
2	104197	153	13.878287675793
2	105239	154	13.960782518599
2	106299	155	13.994947284004
2	107360	156	13.975011026422
2	108421	157	13.946519697749
2	109501	158	13.954196195363
2	110582	159	13.908575135735
2	111663	160	13.893555851928
2	112763	161	13.925646835428
2	113864	162	13.956856088985
2	114965	163	13.935565363681
2	116086	164	13.981824356054
2	117207	165	13.960839076294
2	118328	166	13.963425049901
2	119468	167	13.944366896641
2	120609	168	13.993980701885
2	121750	169	13.936356577491
2	122910	170	13.904627814977
2	124071	171	13.901456429872
2	125232	172	13.877600607274
2	126412	173	13.896702704621
2	127593	174	13.881392423632
2	129219	175	13.958875037138
2	136505	176	13.945687377716
2	146014	177	13.966000350199
2	150721	178	13.970536190735
2	159824	179	13.916551416086
2	161856	180	13.93610556707
2	164535	181	13.939164152481
2	165775	182	13.944239728614
2	167016	183	13.908562719475
2	168258	184	13.872485791091
2	169518	185	13.99865511379
2	170779	186	13.92553616784
2	172040	187	13.916018098511
2	173320	188	13.981679034531
2	174601	189	13.988185767711
2	175882	190	13.923184596703
2	177182	191	13.883733638397
2	178483	192	13.892227361612
2	179784	193	13.876141575957
2	181105	194	13.950034722143
2	182426	195	13.883154610386
2	183747	196	13.946562061303
2	185087	197	13.880639836157
2	186428	198	13.967846674775
2	187769	199	13.891077681468
2	189129	200	13.880399412508
3	102	3	1.9133529532584
3	143	4	1.6952873393311
3	203	5	1.8731499400432
3	264	6	1.8034025248489
3	325	7	2.1224504257739
3	405	8	0.47851136310433
3	486	9	-0.1021267059911
3	567	10	0.086452728209551
3	667	11	0.018149402965792
3	768	12	-0.071146251906175
3	869	13	-0.0001373288989992
3	989	14	-0.013471481548622
3	1110	15	0.054527352924923
3	1231	16	0.03063477210002
3	1371	17	-0.04292928970186
3	1512	18	0.0046075960877356
3	1653	19	-2.4534173319781
3	1813	20	-4.5
3	1974	21	0.8935116339894
3	2135	22	2.2078255666373
3	2315	23	1.8858743545134
3	2496	24	1.9903831391631
3	2677	25	-0.01549494290026
3	2877	26	0.023465231521987
3	3078	27	-0.032681161146611
3	3279	28	-0.045395484422334
3	3499	29	-0.021798015409148
3	3720	30	0.019004409639164
3	3941	31	0.075803257238585
3	4181	32	-0.012492124584968
3	4422	33	-0.098418530665803
3	4663	34	0.11205169297755
3	4923	35	-0.098285225864965
3	5184	36	-0.01064266787842
3	5445	37	0.091707072502468
3	5725	38	-0.096865584938786
3	6006	39	0.021350334375166
3	6287	40	-0.020129852422979
3	6587	41	0.12754734932445
3	6888	42	-0.035107081409079
3	7189	43	-0.058123281914741
3	7509	44	0.015779600332026
3	7830	45	0.0066701874043797
3	8151	46	0.010192284216172
3	8491	47	-0.014827134867664
3	8832	48	0.044105808557942
3	9173	49	0.018181241797283
3	9533	50	-0.051492602068466
3	9894	51	-0.0050966037251055
3	10255	52	0.018296227052343
3	10635	53	-0.065421910630539
3	11016	54	-0.011582619075197
3	11397	55	0.062391626026946
3	11797	56	0.0084849686850799
3	12198	57	0.0091393382777465
3	12599	58	-0.064856647045817
3	13019	59	0.034172988792415
3	13440	60	-0.013924592840485
3	13861	61	0.011007046941668
3	14301	62	0.0067783149331806
3	14742	63	0.035106239686721
3	15183	64	-0.0023704322986315
3	15643	65	-0.016764806038699
3	16104	66	-0.060697888985743
3	16565	67	0.097903466653079
3	17045	68	-0.063582153965253
3	17526	69	0.013864825256169
3	18007	70	0.049493928106967
3	18507	71	-0.048962725931778
3	19008	72	-2.5645258864584
3	19509	73	-4.5
3	20030	74	-4.5
3	20551	75	-2.3640467916256
3	21072	76	0
3	21612	77	0
3	22153	78	0
3	22694	79	0
3	23254	80	0
3	23815	81	0
3	24376	82	0
3	24956	83	0
3	25537	84	0
3	28833	85	0
3	33647	86	0
3	40102	87	0
3	43047	88	0
3	48639	89	0
3	50755	90	0
3	52066	91	0
3	52782	92	0
3	53554	93	0
3	54195	94	0
3	54855	95	0
3	55516	96	0
3	56177	97	0
3	56857	98	0
3	57538	99	0
3	58219	100	0
3	58919	101	0
3	59620	102	0
3	60321	103	0
3	61042	104	0
3	61763	105	0
3	62484	106	0
3	63224	107	0
3	63965	108	0
3	64706	109	0
3	65466	110	0
3	66227	111	0
3	66988	112	0
3	67768	113	0
3	68549	114	0
3	69330	115	0
3	70130	116	0
3	70931	117	0
3	71732	118	0
3	72552	119	0
3	73373	120	0
3	74194	121	0
3	75034	122	0
3	75875	123	0
3	76717	124	2.2219942613752
3	77577	125	2.1596709975521
3	78438	126	1.8894331387547
3	79299	127	1.9135758166644
3	80179	128	2.0540839163866
3	81060	129	2.1299765114859
3	81941	130	1.593374629586
3	82841	131	-0.047903634139804
3	83742	132	0.030312081675511
3	84643	133	-0.012085288621019
3	85564	134	0.021356822983362
3	86485	135	-0.055212875355501
3	87406	136	0.024786464120261
3	88346	137	-0.049899966297671
3	89287	138	0.041701517160982
3	90228	139	0.047561781599653
3	91188	140	0.028731313557364
3	92149	141	-0.054766569577623
3	93110	142	0.0102753423783
3	94090	143	-0.0729428983666
3	95071	144	0.014196870999875
3	96052	145	0.022211705013179
3	97052	146	0.0047752809897066
3	98053	147	0.019526570434682
3	99054	148	0.013089853518178
3	100074	149	-0.0090582387568432
3	101095	150	-0.054747348378879
3	102116	151	0.10164703844814
3	103156	152	-0.056854708525352
3	104197	153	-0.050522710871883
3	105239	154	0.082494842805898
3	106299	155	0.034164765405004
3	107360	156	-0.019936257582158
3	108421	157	-0.028491328672972
3	109501	158	0.0076764976140122
3	110582	159	-0.045621059627738
3	111663	160	-0.015019283806906
3	112763	161	0.032090983500238
3	113864	162	0.031209253557027
3	114965	163	-0.021290725304279
3	116086	164	0.046258992373478
3	117207	165	-0.020985279760788
3	118328	166	0.0025859736069105
3	119468	167	-0.019058153259103
3	120609	168	0.049613805243279
3	121750	169	-0.057624124393332
3	122910	170	-0.031728762513959
3	124071	171	-0.0031713851052331
3	125232	172	-0.023855822598561
3	126412	173	0.019102097346913
3	127593	174	-0.015310280988924
3	129219	175	0.077482613506726
3	136505	176	-0.013187659422401
3	146014	177	0.020312972483225
3	150721	178	0.0045358405355369
3	159824	179	-0.053984774649143
3	161856	180	0.019554150984622
3	164535	181	0.0030585854104732
3	165775	182	0.0050755761330947
3	167016	183	-0.035677009138745
3	168258	184	-0.036076928384137
3	169518	185	0.12616932269884
3	170779	186	-0.073118945949245
3	172040	187	-0.0095180693292054
3	173320	188	0.065660936019849
3	174601	189	0.0065067331795579
3	175882	190	-0.065001171007752
3	177182	191	-0.03945095830597
3	178483	192	0.0084937232150697
3	179784	193	-0.016085785655305
3	181105	194	0.073893146186601
3	182426	195	-0.0668801117572
3	183747	196	0.063407450916712
3	185087	197	-0.065922225145624
3	186428	198	0.087206838617567
3	187769	199	-0.076768993306905
3	189129	200	-0.010678268959746
4	102	3	4.1962556146115
4	143	4	4.6765885426193
4	203	5	5.9822455727343
4	264	6	6.7469998477461
4	325	7	8.9023657158011
4	405	8	3.651678681686
4	486	9	1.6857621818206
4	567	10	2.3276633668785
4	667	11	2.0995306276608
4	768	12	1.7923040941768
4	869	13	2.0305681317735
4	989	14	1.9844951865828
4	1110	15	2.2187318873595
4	1231	16	2.1416854339172
4	1371	17	1.8896148890835
4	1512	18	2.0499339673421
4	1653	19	0.973
4	1813	20	0.973
4	1974	21	3.236958348016
4	2135	22	7.0694109561587
4	2315	23	7.2974163894139
4	2496	24	8.7433911631671
4	2677	25	1.9831721788576
4	2877	26	2.116835898497
4	3078	27	1.9244585801898
4	3279	28	1.8775583559564
4	3499	29	1.9545657515643
4	3720	30	2.0931646705581
4	3941	31	2.2926746988581
4	4181	32	1.993865292131
4	4422	33	1.6968396252803
4	4663	34	2.4149847823944
4	4923	35	1.6983583398882
4	5184	36	1.9906198998388
4	5445	37	2.3442713071536
4	5725	38	1.7018725964397
4	6006	39	2.0993392475273
4	6287	40	1.9585122345881
4	6587	41	2.4691677522194
4	6888	42	1.9170802753567
4	7189	43	1.8345014514108
4	7509	44	2.0838538984303
4	7830	45	2.0539801513469
4	8151	46	2.0668686152862
4	8491	47	1.9813596940184
4	8832	48	2.1840996762636
4	9173	49	2.0987681125428
4	9533	50	1.8592856847688
4	9894	51	2.0145873760113
4	10255	52	2.0950692067684
4	10635	53	1.8080099866508
4	11016	54	1.9870007069688
4	11397	55	2.2415869227426
4	11797	56	2.0614496349521
4	12198	57	2.0646020593826
4	12599	58	1.8102089718445
4	13019	59	2.1453880261281
4	13440	60	1.9826536733129
4	13861	61	2.0673636130683
4	14301	62	2.0538817544551
4	14742	63	2.1528270365066
4	15183	64	2.0265038417738
4	15643	65	1.9764402783138
4	16104	66	1.823544423566
4	16565	67	2.3663700564531
4	17045	68	1.816863137639
4	17526	69	2.0780272006119
4	18007	70	2.2032702170206
4	18507	71	1.8671845150559
4	19008	72	0.973
4	19509	73	0.973
4	20030	74	0.973
4	20551	75	0.973
4	21072	76	0.973
4	21612	77	0.973
4	22153	78	0.973
4	22694	79	0.973
4	23254	80	0.973
4	23815	81	0.973
4	24376	82	0.973
4	24956	83	0.973
4	25537	84	0.973
4	28833	85	0.973
4	33647	86	0.973
4	40102	87	0.973
4	43047	88	0.973
4	48639	89	0.973
4	50755	90	0.973
4	52066	91	0.973
4	52782	92	0.973
4	53554	93	0.973
4	54195	94	0.973
4	54855	95	0.973
4	55516	96	0.973
4	56177	97	0.973
4	56857	98	0.973
4	57538	99	0.973
4	58219	100	0.973
4	58919	101	0.973
4	59620	102	0.973
4	60321	103	0.973
4	61042	104	0.973
4	61763	105	0.973
4	62484	106	0.973
4	63224	107	0.973
4	63965	108	0.973
4	64706	109	0.973
4	65466	110	0.973
4	66227	111	0.973
4	66988	112	0.973
4	67768	113	0.973
4	68549	114	0.973
4	69330	115	0.973
4	70130	116	0.973
4	70931	117	0.973
4	71732	118	0.973
4	72552	119	0.973
4	73373	120	0.973
4	74194	121	0.973
4	75034	122	0.973
4	75875	123	0.973
4	76717	124	2.4080817491368
4	77577	125	3.6097150181135
4	78438	126	4.2908662920557
4	79299	127	5.3300190940896
4	80179	128	6.7716083595646
4	81060	129	8.2306431470796
4	81941	130	7.3964630212997
4	82841	131	1.8694407969886
4	83742	132	2.1350370330868
4	84643	133	1.9913567143412
4	85564	134	2.1059366793651
4	86485	135	1.8435469109796
4	87406	136	2.1141823143441
4	88346	137	1.8590913255925
4	89287	138	2.1700231934041
4	90228	139	2.1950764783891
4	91188	140	2.1348521217125
4	92149	141	1.848423466467
4	93110	142	2.0679571445659
4	94090	143	1.7820942605596
4	95071	144	2.0749497938408
4	96052	145	2.1041555485124
4	97052	146	2.0461934569666
4	98053	147	2.0977460374518
4	99054	148	2.0775076200446
4	100074	149	2.0021532082224
4	101095	150	1.8438174528787
4	102116	151	2.3799842198344
4	103156	152	1.8407138090759
4	104197	153	1.8574406286347
4	105239	154	2.3123894181885
4	106299	155	2.1535598612525
4	107360	156	1.9691423592976
4	108421	157	1.9376113298153
4	109501	158	2.0599739597323
4	110582	159	1.8765833152484
4	111663	160	1.9776849407054
4	112763	161	2.1389434248576
4	113864	162	2.1394055920097
4	114965	163	1.9607511040502
4	116086	164	2.1928600666225
4	117207	165	1.9642310153012
4	118328	166	2.0438040308735
4	119468	167	1.9691072905981
4	120609	168	2.2055554619791
4	121750	169	1.8387961934292
4	122910	170	1.922778033881
4	124071	171	2.0181537909243
4	125232	172	1.9465666317606
4	126412	173	2.0922698365702
4	127593	174	1.9755185732893
4	129219	175	2.2952948749659
4	136505	176	1.9889662956578
4	146014	177	2.1037346918995
4	150721	178	2.0511009581671
4	159824	179	1.8492572903835
4	161856	180	2.0979851268675
4	164535	181	2.0428975590011
4	165775	182	2.0501977758109
4	167016	183	1.9099142825738
4	168258	184	1.9052179611855
4	169518	185	2.4643641249373
4	170779	186	1.7858410554177
4	172040	187	1.9983405517558
4	173320	188	2.2582200545228
4	174601	189	2.0595717264255
4	175882	190	1.8128817885198
4	177182	191	1.8949737034561
4	178483	192	2.0562767784855
4	179784	193	1.9724109415159
4	181105	194	2.2821586246632
4	182426	195	1.8031467798411
4	183747	196	2.2464983260742
4	185087	197	1.8061360510748
4	186428	198	2.3291141609331
4	187769	199	1.7707192427041
4	189129	200	1.9909162058012
5	143	4	2414.8767583254
5	203	5	2411.8725636174
5	264	6	2407.2970525089
5	325	7	2402.4626210862
5	405	8	2396.3056860371
5	486	9	2388.8743536096
5	567	10	2380.097228827
5	667	11	2370.3507264333
5	768	12	2360.5878487076
5	869	13	2350.7849318213
5	989	14	2341.2418729237
5	1110	15	2334.6305580324
5	1231	16	2337.3467480277
5	1371	17	2348.0519014368
5	1512	18	2358.3998493504
5	1653	19	2371.2788021446
5	1813	20	2385.0887639745
5	1974	21	2398.4985461925
5	2135	22	2411.2485283293
5	2315	23	2420.6905829484
5	2496	24	2427.6440450998
5	2677	25	2431.3031180431
5	2877	26	2432.9057471878
5	3078	27	2434.8184996871
5	3279	28	2436.9106889558
5	3499	29	2438.5031214217
5	3720	30	2439.359314087
5	3941	31	2440.3695716034
5	4181	32	2441.3815056744
5	4422	33	2442.392207776
5	4663	34	2443.4019859718
5	4923	35	2444.4122552489
5	5184	36	2445.4251439738
5	5445	37	2446.4367595227
5	5725	38	2447.4467230743
5	6006	39	2448.4574488286
5	6287	40	2449.467800329
5	6587	41	2450.4780716181
5	6888	42	2449.7461704329
5	7189	43	2448.6331060936
5	7509	44	2447.5209445587
5	7830	45	2446.407523851
5	8151	46	2445.2946584851
5	8491	47	2444.1824360332
5	8832	48	2443.0706190476
5	9173	49	2441.9568028547
5	9533	50	2440.8451110823
5	9894	51	2439.8503503047
5	10255	52	2438.9091742415
5	10635	53	2438.2310626655
5	11016	54	2433.9050446447
5	11397	55	2424.21615465
5	11797	56	2411.3460908785
5	12198	57	2397.4706148925
5	12599	58	2383.5587488873
5	13019	59	2369.633660475
5	13440	60	2355.7048479554
5	13861	61	2341.7904321874
5	14301	62	2327.8638711022
5	14742	63	2313.9188814831
5	15183	64	2299.9979078089
5	15643	65	2286.0826278217
5	16104	66	2272.1469357561
5	16565	67	2258.2076214411
5	17045	68	2244.3155730069
5	17526	69	2230.5273849192
5	18007	70	2216.7446519198
5	18507	71	2203.5167182724
5	19008	72	2190.3178840362
5	19509	73	2177.2322881214
5	20030	74	2166.0575198019
5	20551	75	2157.6433227622
5	21072	76	2151.7978679298
5	21612	77	2148.12850579
5	22153	78	2146.1504391922
5	22694	79	2145.2176430746
5	23254	80	2144.8457426265
5	23815	81	2144.7095674569
5	24376	82	2144.6606226763
5	24956	83	2144.6429435182
5	25537	84	2144.6366379777
5	28833	85	2144.6343920679
5	33647	86	2144.6335903119
5	40102	87	2144.6333007435
5	43047	88	2144.633195825
5	48639	89	2144.6331583896
5	50755	90	2144.633145728
5	52066	91	2144.633145728
5	52782	92	2144.633145728
5	53554	93	2144.633145728
5	54195	94	2144.633145728
5	54855	95	2144.633145728
5	55516	96	2144.633145728
5	56177	97	2144.633145728
5	56857	98	2144.633145728
5	57538	99	2144.633145728
5	58219	100	2144.633145728
5	58919	101	2144.633145728
5	59620	102	2144.633145728
5	60321	103	2144.633145728
5	61042	104	2144.633145728
5	61763	105	2144.633145728
5	62484	106	2144.633145728
5	63224	107	2144.633145728
5	63965	108	2144.633145728
5	64706	109	2144.633145728
5	65466	110	2144.633145728
5	66227	111	2144.633145728
5	66988	112	2144.633145728
5	67768	113	2144.633145728
5	68549	114	2144.633145728
5	69330	115	2144.633145728
5	70130	116	2144.633145728
5	70931	117	2144.633145728
5	71732	118	2144.633145728
5	72552	119	2144.633145728
5	73373	120	2144.633145728
5	74194	121	2144.633145728
5	75034	122	2144.633145728
5	75875	123	2144.633145728
5	76717	124	2144.2754340136
5	77577	125	2142.4846802864
5	78438	126	2139.1451827293
5	79299	127	2134.908475054
5	80179	128	2127.149872842
5	81060	129	2120.4387881567
5	81941	130	2112.3739490838
5	82841	131	2103.147663089
5	83742	132	2093.629591034
5	84643	133	2084.0951069517
5	85564	134	2074.579488395
5	86485	135	2065.0639168544
5	87406	136	2055.5512337412
5	88346	137	2046.0342183947
5	89287	138	2036.0487979884
5	90228	139	2026.0452900858
5	91188	140	2016.0563570814
5	92149	141	2006.0729706188
5	93110	142	1996.0847308773
5	94090	143	1986.0883360283
5	95071	144	1976.106136184
5	96052	145	1966.0952727045
5	97052	146	1956.0879377604
5	98053	147	1946.1023564262
5	99054	148	1936.1053083714
5	100074	149	1926.3526811849
5	101095	150	1916.618181454
5	102116	151	1906.8885864745
5	103156	152	1897.1661472071
5	104197	153	1887.4379255387
5	105239	154	1877.7068625629
5	106299	155	1867.9731467689
5	107360	156	1858.2471694911
5	108421	157	1848.516762564
5	109501	158	1838.7884987453
5	110582	159	1828.8682903362
5	111663	160	1818.7674692031
5	112763	161	1808.6556126159
5	113864	162	1798.6881454488
5	114965	163	1788.7282369935
5	116086	164	1778.7716701351
5	117207	165	1768.8148926139
5	118328	166	1758.8629838625
5	119468	167	1748.9223574745
5	120609	168	1738.9917706434
5	121750	169	1729.0392786098
5	122910	170	1719.0915389528
5	124071	171	1709.1409424301
5	125232	172	1699.1952381799
5	126412	173	1689.2380949382
5	127593	174	1679.2882738797
5	129219	175	1669.3451070891
5	136505	176	1659.395775152
5	146014	177	1649.4270165171
5	150721	178	1639.4901366775
5	159824	179	1629.5258021428
5	161856	180	1619.5642357833
5	164535	181	1609.7627247096
5	165775	182	1599.9604399907
5	167016	183	1590.1700976605
5	168258	184	1580.3662023852
5	169518	185	1570.5647547044
5	170779	186	1560.7786372968
5	172040	187	1550.434129402
5	173320	188	1539.9118072168
5	174601	189	1529.3927900881
5	175882	190	1518.8715863216
5	177182	191	1508.3494753712
5	178483	192	1497.4541218153
5	179784	193	1486.0624435559
5	181105	194	1474.6939624506
5	182426	195	1463.3160897251
5	183747	196	1451.9234011091
5	185087	197	1439.8787805256
5	186428	198	1427.305272048
5	187769	199	1414.7230042866
5	189129	200	1402.1630774252
6	143	4	1578.4506684253
6	203	5	1579.5537930429
6	264	6	1581.4165868293
6	325	7	1586.3131998433
6	405	8	1592.5493268352
6	486	9	1600.0762428036
6	567	10	1608.9662610246
6	667	11	1618.8381252186
6	768	12	1628.7265753681
6	869	13	1638.6555796713
6	989	14	1648.8046840783
6	1110	15	1660.6325348346
6	1231	16	1673.301875555
6	1371	17	1682.2138796467
6	1512	18	1691.5459182626
6	1653	19	1695.5099147679
6	1813	20	1697.3308411958
6	1974	21	1698.6335971011
6	2135	22	1699.8391930545
6	2315	23	1700.7320023719
6	2496	24	1701.2941834759
6	2677	25	1708.3978488175
6	2877	26	1718.9439634858
6	3078	27	1731.5308475178
6	3279	28	1745.2985167308
6	3499	29	1759.1189484736
6	3720	30	1773.033284259
6	3941	31	1786.9263172904
6	4181	32	1800.8424062571
6	4422	33	1814.7415532097
6	4663	34	1828.6279946407
6	4923	35	1842.5211894047
6	5184	36	1856.4504067414
6	5445	37	1870.362115399
6	5725	38	1884.2511058366
6	6006	39	1898.150578063
6	6287	40	1912.0449035605
6	6587	41	1925.9381259941
6	6888	42	1939.8457802581
6	7189	43	1953.7382693188
6	7509	44	1967.6194902081
6	7830	45	1981.5164272105
6	8151	46	1995.4064328251
6	8491	47	2009.2884140396
6	8832	48	2023.165334505
6	9173	49	2037.0672076773
6	9533	50	2050.942565321
6	9894	51	2064.8483957723
6	10255	52	2078.754013543
6	10635	53	2092.6537938379
6	11016	54	2105.6893007364
6	11397	55	2115.3934075218
6	11797	56	2120.5034639826
6	12198	57	2120.5707901428
6	12599	58	2120.100904949
6	13019	59	2119.6305731572
6	13440	60	2119.160115581
6	13861	61	2118.6901442679
6	14301	62	2118.2197627351
6	14742	63	2117.748758764
6	15183	64	2117.2785659507
6	15643	65	2116.8085654471
6	16104	66	2116.3378755087
6	16565	67	2115.8670632252
6	17045	68	2115.0711128758
6	17526	69	2113.1158412341
6	18007	70	2111.1613431666
6	18507	71	2106.8160774671
6	19008	72	2102.339647443
6	19509	73	2097.6526627708
6	20030	74	2091.0742531046
6	20551	75	2086.1209481629
6	21072	76	2082.6798211997
6	21612	77	2080.5197256459
6	22153	78	2079.3552690716
6	22694	79	2078.806146726
6	23254	80	2078.5872148043
6	23815	81	2078.5070506316
6	24376	82	2078.4782376122
6	24956	83	2078.4678301709
6	25537	84	2078.4641181994
6	28833	85	2078.4627960678
6	33647	86	2078.4623240866
6	40102	87	2078.4621536219
6	43047	88	2078.4620918585
6	48639	89	2078.4620698206
6	50755	90	2078.4620623672
6	52066	91	2078.4620623672
6	52782	92	2078.4620623672
6	53554	93	2078.4620623672
6	54195	94	2078.4620623672
6	54855	95	2078.4620623672
6	55516	96	2078.4620623672
6	56177	97	2078.4620623672
6	56857	98	2078.4620623672
6	57538	99	2078.4620623672
6	58219	100	2078.4620623672
6	58919	101	2078.4620623672
6	59620	102	2078.4620623672
6	60321	103	2078.4620623672
6	61042	104	2078.4620623672
6	61763	105	2078.4620623672
6	62484	106	2078.4620623672
6	63224	107	2078.4620623672
6	63965	108	2078.4620623672
6	64706	109	2078.4620623672
6	65466	110	2078.4620623672
6	66227	111	2078.4620623672
6	66988	112	2078.4620623672
6	67768	113	2078.4620623672
6	68549	114	2078.4620623672
6	69330	115	2078.4620623672
6	70130	116	2078.4620623672
6	70931	117	2078.4620623672
6	71732	118	2078.4620623672
6	72552	119	2078.4620623672
6	73373	120	2078.4620623672
6	74194	121	2078.4620623672
6	75034	122	2078.4620623672
6	75875	123	2078.4620623672
6	76717	124	2078.2514831284
6	77577	125	2077.1972946841
6	78438	126	2075.0037653139
6	79299	127	2070.9101691684
6	80179	128	2067.4514232809
6	81060	129	2060.2880828883
6	81941	130	2051.6797594661
6	82841	131	2041.8317199564
6	83742	132	2031.6722311098
6	84643	133	2021.4952242402
6	85564	134	2011.3383542318
6	86485	135	2001.1815344077
6	87406	136	1991.0277976608
6	88346	137	1980.8694367334
6	89287	138	1971.1272283681
6	90228	139	1961.4031075193
6	91188	140	1951.6931545082
6	92149	141	1941.9885931304
6	93110	142	1932.2793140197
6	94090	143	1922.5621075649
6	95071	144	1912.8586996645
6	96052	145	1903.1274286723
6	97052	146	1893.3995876675
6	98053	147	1883.6928927181
6	99054	148	1873.9750513006
6	100074	149	1864.0194978677
6	101095	150	1854.0443311147
6	102116	151	1844.0741903735
6	103156	152	1834.1113822553
6	104197	153	1824.142648777
6	105239	154	1814.1710037459
6	106299	155	1804.1966403108
6	107360	156	1794.2302067121
6	108421	157	1784.2592339488
6	109501	158	1774.2904572785
6	110582	159	1764.5302406047
6	111663	160	1754.9388907133
6	112763	161	1745.3370619807
6	113864	162	1735.6222454337
6	114965	163	1725.8613688545
6	116086	164	1716.1037670961
6	117207	165	1706.3459588848
6	118328	166	1696.5929221492
6	119468	167	1686.8509423174
6	120609	168	1677.1188014196
6	121750	169	1667.3651930578
6	122910	170	1657.6162421042
6	124071	171	1647.8644913742
6	125232	172	1638.1175351534
6	126412	173	1628.3593685301
6	127593	174	1618.6083777677
6	129219	175	1608.8639082992
6	136505	176	1599.1133968849
6	146014	177	1589.3438469823
6	150721	178	1579.6055388311
6	159824	179	1569.8403246198
6	161856	180	1560.0778232673
6	164535	181	1550.3210563753
6	165775	182	1540.4261354338
6	167016	183	1530.5432697423
6	168258	184	1520.6467230245
6	169518	185	1510.7526470311
6	170779	186	1500.8740461897
6	172040	187	1491.5384087367
6	173320	188	1482.437612718
6	174601	189	1473.3396752551
6	175882	190	1464.2398465611
6	177182	191	1455.1392332409
6	178483	192	1446.5265005752
6	179784	193	1438.5040472653
6	181105	194	1430.4979302743
6	182426	195	1422.4851993471
6	183747	196	1414.4620345058
6	185087	197	1407.6222093813
6	186428	198	1401.6943069091
6	187769	199	1395.7622747878
6	189129	200	1389.840775501
7	203	5	4.0332649588119
7	264	6	5.8265110515686
7	325	7	7.7852127750962
7	405	8	9.5658873894228
7	486	9	11.450149483434
7	567	10	13.391487500134
7	667	11	13.949883621705
7	768	12	13.87602620427
7	869	13	13.885232782268
7	989	14	13.987373048679
7	1110	15	13.890608048609
7	1231	16	13.887004709987
7	1371	17	13.926980708602
7	1512	18	13.89086526999
7	1653	19	13.965056618985
7	1813	20	13.946692067499
7	1974	21	13.097137451398
7	2135	22	11.939132677032
7	2315	23	7.4783001788439
7	2496	24	7.8592269216425
7	2677	25	9.5749213322898
7	2877	26	11.610942506126
7	3078	27	13.581243869506
7	3279	28	13.973211987913
7	3499	29	13.918392209036
7	3720	30	13.928662607018
7	3941	31	13.985277111761
7	4181	32	13.95532245066
7	4422	33	13.938708755139
7	4663	34	13.908545650935
7	4923	35	13.927478809105
7	5184	36	13.897819017794
7	5445	37	13.989504252097
7	5725	38	13.94374062394
7	6006	39	13.903882643976
7	6287	40	13.969130632835
7	6587	41	13.884234787642
7	6888	42	13.881978327318
7	7189	43	13.927070145076
7	7509	44	13.922745489741
7	7830	45	13.95273740395
7	8151	46	13.968270483359
7	8491	47	13.918685564972
7	8832	48	13.921468284922
7	9173	49	13.897015957548
7	9533	50	13.964752228069
7	9894	51	13.91147568828
7	10255	52	13.974545761354
7	10635	53	13.965476403411
7	11016	54	13.989670229855
7	11397	55	13.951804798429
7	11797	56	13.892850009208
7	12198	57	13.958218119799
7	12599	58	13.933717581006
7	13019	59	13.982012811573
7	13440	60	13.954506225567
7	13861	61	13.954468280503
7	14301	62	13.914126337939
7	14742	63	13.998578815588
7	15183	64	13.932968401979
7	15643	65	13.954534002345
7	16104	66	13.998651232829
7	16565	67	13.999179182528
7	17045	68	13.886099785112
7	17526	69	13.881868150404
7	18007	70	13.887636745651
7	18507	71	13.978686858166
7	19008	72	13.970344127666
7	19509	73	13.925369204739
7	20030	74	11.503028205973
7	20551	75	8.3084939661969
7	21072	76	5.5757626568646
7	21612	77	3.3211618849162
7	22153	78	1.6266335353547
7	22694	79	0.70715133051593
7	23254	80	0.26232084274652
7	23815	81	0.09568805664727
7	24376	82	0.033835632228035
7	24956	83	0.012538818862259
7	25537	84	0.0044949869302171
7	28833	85	0.0015515939487704
7	33647	86	0.00056220080715219
7	40102	87	0.00020206205078003
7	43047	88	7.4991505956587e-05
7	48639	89	2.6407687680597e-05
7	50755	90	0
7	52066	91	0
7	52782	92	0
7	53554	93	0
7	54195	94	0
7	54855	95	0
7	55516	96	0
7	56177	97	0
7	56857	98	0
7	57538	99	0
7	58219	100	0
7	58919	101	0
7	59620	102	0
7	60321	103	0
7	61042	104	0
7	61763	105	0
7	62484	106	0
7	63224	107	0
7	63965	108	0
7	64706	109	0
7	65466	110	0
7	66227	111	0
7	66988	112	0
7	67768	113	0
7	68549	114	0
7	69330	115	0
7	70130	116	0
7	70931	117	0
7	71732	118	0
7	72552	119	0
7	73373	120	0
7	74194	121	0
7	75034	122	0
7	75875	123	0
7	76717	124	1.0074459883879
7	77577	125	2.9889302256727
7	78438	126	4.8098560286978
7	79299	127	6.8175175217465
7	80179	128	8.7692460296107
7	81060	129	10.599613138129
7	81941	130	12.63114044604
7	82841	131	13.911355651631
7	83742	132	13.959096302334
7	84643	133	13.985669557508
7	85564	134	13.912786148109
7	86485	135	13.880683887878
7	87406	136	13.921652116431
7	88346	137	13.904044170342
7	89287	138	13.928399279253
7	90228	139	13.947232982973
7	91188	140	13.957098587838
7	92149	141	13.872669367229
7	93110	142	13.988834063003
7	94090	143	13.962365872057
7	95071	144	13.978590016267
7	96052	145	13.996544766314
7	97052	146	13.909791962707
7	98053	147	13.955426083545
7	99054	148	13.916719595476
7	100074	149	13.96472714375
7	101095	150	13.96898798909
7	102116	151	13.902139999291
7	103156	152	13.980534003156
7	104197	153	13.976162572829
7	105239	154	13.902045026864
7	106299	155	13.998268041729
7	107360	156	13.981719435903
7	108421	157	13.904254397955
7	109501	158	13.91068194794
7	110582	159	13.901592570813
7	111663	160	13.871256113877
7	112763	161	13.9870051032
7	113864	162	13.963580676371
7	114965	163	13.94083829636
7	116086	164	13.980116114989
7	117207	165	13.977826093403
7	118328	166	13.954251742228
7	119468	167	13.894492452065
7	120609	168	13.893317757975
7	121750	169	13.907786323659
7	122910	170	13.910502062014
7	124071	171	13.881678228341
7	125232	172	13.899310339873
7	126412	173	13.872349197764
7	127593	174	13.895146320874
7	129219	175	13.975084472168
7	136505	176	13.915615806044
7	146014	177	13.983601140513
7	150721	178	13.901822753502
7	159824	179	13.971918848483
7	161856	180	13.912339184245
7	164535	181	13.942714784404
7	165775	182	13.915853303717
7	167016	183	13.922881097118
7	168258	184	13.916264264572
7	169518	185	13.879832274488
7	170779	186	13.932997833022
7	172040	187	13.939943925054
7	173320	188	13.911533115392
7	174601	189	13.909209262494
7	175882	190	13.90328337074
7	177182	191	13.932158297678
7	178483	192	13.921860637383
7	179784	193	13.959992773633
7	181105	194	13.911786046105
7	182426	195	13.943455341596
7	183747	196	13.990971652481
7	185087	197	13.954088344059
7	186428	198	13.985034477036
7	187769	199	13.887624221304
7	189129	200	13.954445283646
8	264	6	1.7932460927567
8	325	7	1.9587017235276
8	405	8	1.7806746143266
8	486	9	1.8842620940111
8	567	10	1.9413380167005
8	667	11	0.5583961215709
8	768	12	-0.073857417434921
8	869	13	0.0092065779981212
8	989	14	0.10214026641101
8	1110	15	-0.096765000070445
8	1231	16	-0.0036033386224883
8	1371	17	0.039975998615846
8	1512	18	-0.036115438612178
8	1653	19	0.074191348995083
8	1813	20	-0.018364551486448
8	1974	21	-0.84955461610103
8	2135	22	-1.1580047743662
8	2315	23	-4.4608324981877
8	2496	24	0.38092674279862
8	2677	25	1.7156944106473
8	2877	26	2.0360211738362
8	3078	27	1.9703013633797
8	3279	28	0.39196811840698
8	3499	29	-0.054819778876846
8	3720	30	0.010270397982096
8	3941	31	0.056614504742901
8	4181	32	-0.029954661100637
8	4422	33	-0.016613695521373
8	4663	34	-0.030163104203529
8	4923	35	0.018933158169965
8	5184	36	-0.029659791311714
8	5445	37	0.091685234303586
8	5725	38	-0.045763628156855
8	6006	39	-0.039857979963999
8	6287	40	0.065247988859191
8	6587	41	-0.08489584519295
8	6888	42	-0.0022564603248618
8	7189	43	0.045091817758511
8	7509	44	-0.0043246553349299
8	7830	45	0.029991914208512
8	8151	46	0.015533079409506
8	8491	47	-0.0495849183877
8	8832	48	0.0027827199501917
8	9173	49	-0.024452327373437
8	9533	50	0.067736270520836
8	9894	51	-0.053276539789513
8	10255	52	0.063070073074195
8	10635	53	-0.0090693579427903
8	11016	54	0.024193826443517
8	11397	55	-0.037865431425162
8	11797	56	-0.058954789221753
8	12198	57	0.065368110591081
8	12599	58	-0.024500538792926
8	13019	59	0.048295230567454
8	13440	60	-0.027506586005911
8	13861	61	-3.7945064249811e-05
8	14301	62	-0.040341942564119
8	14742	63	0.08445247764932
8	15183	64	-0.065610413609539
8	15643	65	0.021565600365866
8	16104	66	0.044117230484263
8	16565	67	0.0005279496987356
8	17045	68	-0.11307939741528
8	17526	69	-0.0042316347081215
8	18007	70	0.0057685952470639
8	18507	71	0.091050112515221
8	19008	72	-0.0083427305007344
8	19509	73	-0.044974922926631
8	20030	74	-2.4223409987658
8	20551	75	-3.1945342397763
8	21072	76	-2.7327313093324
8	21612	77	-2.2546007719484
8	22153	78	-1.6945283495614
8	22694	79	-0.91948220483881
8	23254	80	-0.44483048776941
8	23815	81	-0.16663278609925
8	24376	82	-0.061852424419235
8	24956	83	-0.021296813365776
8	25537	84	-0.0080438319320418
8	28833	85	-0.0029433929814467
8	33647	86	-0.0009893931416182
8	40102	87	-0.00036013875637216
8	43047	88	-0.00012707054482344
8	48639	89	-4.8583818275989e-05
8	50755	90	-2.6407687680597e-05
8	52066	91	0
8	52782	92	0
8	53554	93	0
8	54195	94	0
8	54855	95	0
8	55516	96	0
8	56177	97	0
8	56857	98	0
8	57538	99	0
8	58219	100	0
8	58919	101	0
8	59620	102	0
8	60321	103	0
8	61042	104	0
8	61763	105	0
8	62484	106	0
8	63224	107	0
8	63965	108	0
8	64706	109	0
8	65466	110	0
8	66227	111	0
8	66988	112	0
8	67768	113	0
8	68549	114	0
8	69330	115	0
8	70130	116	0
8	70931	117	0
8	71732	118	0
8	72552	119	0
8	73373	120	0
8	74194	121	0
8	75034	122	0
8	75875	123	0
8	76717	124	1.0074459883879
8	77577	125	1.9814842372848
8	78438	126	1.8209258030251
8	79299	127	2.0076614930487
8	80179	128	1.9517285078642
8	81060	129	1.8303671085183
8	81941	130	2.0315273079113
8	82841	131	1.2802152055907
8	83742	132	0.047740650703199
8	84643	133	0.026573255173863
8	85564	134	-0.072883409399074
8	86485	135	-0.03210226023104
8	87406	136	0.040968228552956
8	88346	137	-0.017607946088537
8	89287	138	0.024355108910239
8	90228	139	0.018833703720011
8	91188	140	0.0098656048648991
8	92149	141	-0.084429220608435
8	93110	142	0.1161646957742
8	94090	143	-0.026468190946616
8	95071	144	0.016224144210573
8	96052	145	0.017954750047066
8	97052	146	-0.086752803607379
8	98053	147	0.045634120837786
8	99054	148	-0.038706488069147
8	100074	149	0.048007548274473
8	101095	150	0.0042608453403226
8	102116	151	-0.066847989798989
8	103156	152	0.078394003864377
8	104197	153	-0.0043714303267191
8	105239	154	-0.074117545965127
8	106299	155	0.096223014865537
8	107360	156	-0.016548605826683
8	108421	157	-0.077465037947986
8	109501	158	0.0064275499852364
8	110582	159	-0.0090893771266565
8	111663	160	-0.030336456936784
8	112763	161	0.11574898932362
8	113864	162	-0.023424426829443
8	114965	163	-0.022742380010895
8	116086	164	0.039277818629053
8	117207	165	-0.0022900215862336
8	118328	166	-0.023574351174757
8	119468	167	-0.059759290162473
8	120609	168	-0.0011746940901496
8	121750	169	0.014468565683346
8	122910	170	0.0027157383551817
8	124071	171	-0.028823833672796
8	125232	172	0.017632111532148
8	126412	173	-0.026961142108776
8	127593	174	0.022797123109923
8	129219	175	0.0799381512939
8	136505	176	-0.059468666124157
8	146014	177	0.067985334468538
8	150721	178	-0.081778387010562
8	159824	179	0.070096094980835
8	161856	180	-0.059579664238262
8	164535	181	0.030375600159168
8	165775	182	-0.026861480686348
8	167016	183	0.0070277934009209
8	168258	184	-0.006616832546424
8	169518	185	-0.036431990084239
8	170779	186	0.053165558534674
8	172040	187	0.0069460920314306
8	173320	188	-0.028410809661727
8	174601	189	-0.0023238528985541
8	175882	190	-0.0059258917532858
8	177182	191	0.028874926937279
8	178483	192	-0.010297660294455
8	179784	193	0.038132136249915
8	181105	194	-0.048206727528013
8	182426	195	0.031669295490719
8	183747	196	0.047516310885548
8	185087	197	-0.036883308421819
8	186428	198	0.030946132976096
8	187769	199	-0.097410255731084
8	189129	200	0.066821062341333
9	264	6	3.9274001426868
9	325	7	5.2041356246368
9	405	8	5.7574507674447
9	486	9	7.0006276784153
9	567	10	8.2432295261252
9	667	11	3.9110016848773
9	768	12	1.7792042638201
9	869	13	2.0579365757541
9	989	14	2.3818636967155
9	1110	15	1.7037407999188
9	1231	16	2.0152488537881
9	1371	17	2.1655550639215
9	1512	18	1.906797412239
9	1653	19	2.2849654495652
9	1813	20	1.9716653983805
9	1974	21	0.973
9	2135	22	0.973
9	2315	23	0.973
9	2496	24	2.2554772362628
9	2677	25	5.6120472675651
9	2877	26	7.5119842129131
9	3078	27	8.4455276517466
9	3279	28	3.3560730035355
9	3499	29	1.8466200733259
9	3720	30	2.0660268329645
9	3941	31	2.2281549844786
9	4181	32	1.9335288120447
9	4422	33	1.9767670407741
9	4663	34	1.9283950769156
9	4923	35	2.0949799016024
9	5184	36	1.9290667558988
9	5445	37	2.3468857079218
9	5725	38	1.8793040227889
9	6006	39	1.8954681876561
9	6287	40	2.2553467174174
9	6587	41	1.7429567241042
9	6888	42	2.0192482635441
9	7189	43	2.1827359052182
9	7509	44	2.0164367628106
9	7830	45	2.1348602115454
9	8151	46	2.0878872407227
9	8491	47	1.8642059318509
9	8832	48	2.0401536442479
9	9173	49	1.9464315106901
9	9533	50	2.2632042711189
9	9894	51	1.851180617826
9	10255	52	2.2486511283506
9	10635	53	2.0047870143605
9	11016	54	2.1193583924862
9	11397	55	1.9065956504161
9	11797	56	1.8305118457369
9	12198	57	2.2544630998412
9	12599	58	1.9497933768092
9	13019	59	2.199742909699
9	13440	60	1.9416842431598
9	13861	61	2.0340583936544
9	14301	62	1.8947902862501
9	14742	63	2.3236156337703
9	15183	64	1.8116807487081
9	15643	65	2.1067187558746
9	16104	66	2.1875465210812
9	16565	67	2.0405446651404
9	17045	68	1.6487905152147
9	17526	69	2.0126291187762
9	18007	70	2.0466796925005
9	18507	71	2.3433989621326
9	19008	72	2.0077208397811
9	19509	73	1.8802787050508
9	20030	74	0.973
9	20551	75	0.973
9	21072	76	0.973
9	21612	77	0.973
9	22153	78	0.973
9	22694	79	0.973
9	23254	80	0.973
9	23815	81	0.973
9	24376	82	1.1111278658488
9	24956	83	1.1105405169147
9	25537	84	1.1102081243603
9	28833	85	1.1100737482573
9	33647	86	1.1100269865137
9	40102	87	1.1100097299357
9	43047	88	1.1100036152937
9	48639	89	1.1100012735977
9	50755	90	0.973
9	52066	91	0.973
9	52782	92	0.973
9	53554	93	0.973
9	54195	94	0.973
9	54855	95	0.973
9	55516	96	0.973
9	56177	97	0.973
9	56857	98	0.973
9	57538	99	0.973
9	58219	100	0.973
9	58919	101	0.973
9	59620	102	0.973
9	60321	103	0.973
9	61042	104	0.973
9	61763	105	0.973
9	62484	106	0.973
9	63224	107	0.973
9	63965	108	0.973
9	64706	109	0.973
9	65466	110	0.973
9	66227	111	0.973
9	66988	112	0.973
9	67768	113	0.973
9	68549	114	0.973
9	69330	115	0.973
9	70130	116	0.973
9	70931	117	0.973
9	71732	118	0.973
9	72552	119	0.973
9	73373	120	0.973
9	74194	121	0.973
9	75034	122	0.973
9	75875	123	0.973
9	76717	124	1.4032959804234
9	77577	125	2.6839795840135
9	78438	126	3.4630791015344
9	79299	127	4.7667804285314
9	80179	128	5.7200845072804
9	81060	129	6.407023179348
9	81941	130	8.089674348387
9	82841	131	6.3218833112619
9	83742	132	2.1952654366489
9	84643	133	2.1269451191026
9	85564	134	1.7855558300948
9	86485	135	1.9192758908256
9	87406	136	2.1682894028507
9	88346	137	1.9700401564216
9	89287	138	2.1132780923625
9	90228	139	2.0967521261933
9	91188	140	2.0676394119274
9	92149	141	1.7435781492056
9	93110	142	2.4293300508524
9	94090	143	1.945929812323
9	95071	144	2.0913101916029
9	96052	145	2.0990577040159
9	97052	146	1.7388095837429
9	98053	147	2.1877632083839
9	99054	148	1.9005145370032
9	100074	149	2.1968042961102
9	101095	150	2.0500150684712
9	102116	151	1.8048797568188
9	103156	152	2.3009863061562
9	104197	153	2.0216810197987
9	105239	154	1.780515749493
9	106299	155	2.3632863193112
9	107360	156	1.9812120211058
9	108421	157	1.7694840250872
9	109501	158	2.0512663796081
9	110582	159	1.9983405927992
9	111663	160	1.9242939949574
9	112763	161	2.4276901516778
9	113864	162	1.9562892484012
9	114965	163	1.9563851254971
9	116086	164	2.1691450530814
9	117207	165	2.0288611293971
9	118328	166	1.9548839267273
9	119468	167	1.8279616767825
9	120609	168	2.0240172755128
9	121750	169	2.0779186428145
9	122910	170	2.0388041841175
9	124071	171	1.9303371884883
9	125232	172	2.0876231595316
9	126412	173	1.9356815008423
9	127593	174	2.1044779476447
9	129219	175	2.3055260701722
9	136505	176	1.8307829891951
9	146014	177	2.2662806746104
9	150721	178	1.7548306755801
9	159824	179	2.2720005806138
9	161856	180	1.8301239210578
9	164535	181	2.1350531771457
9	165775	182	1.9401591790509
9	167016	183	2.0545426175358
9	168258	184	2.008095298911
9	169518	185	1.9047128092177
9	170779	186	2.2105154788471
9	172040	187	2.0560379228057
9	173320	188	1.9345525540005
9	174601	189	2.0217783396811
9	175882	190	2.0091088827246
9	177182	191	2.1288596155953
9	178483	192	1.9963070300968
9	179784	193	2.1630409260281
9	181105	194	1.8682060152898
9	182426	195	2.1394815211727
9	183747	196	2.1981386720178
9	185087	197	1.9101109931467
9	186428	198	2.1416143091045
9	187769	199	1.7013473059811
9	189129	200	2.2589043103441
10	325	7	2414.8848622198
10	405	8	2412.0691307599
10	486	9	2407.3819784434
10	567	10	2402.4639103656
10	667	11	2396.2016479742
10	768	12	2388.5021761758
10	869	13	2379.5347220144
10	989	14	2369.7521497252
10	1110	15	2359.9648396304
10	1231	16	2350.1637192596
10	1371	17	2340.717056727
10	1512	18	2334.4889366638
10	1653	19	2338.0188398167
10	1813	20	2348.6970945761
10	1974	21	2359.0578910074
10	2135	22	2372.1753142256
10	2315	23	2385.9847009928
10	2496	24	2399.0560799135
10	2677	25	2411.469456295
10	2877	26	2420.8240344936
10	3078	27	2428.2511095385
10	3279	28	2431.5096723901
10	3499	29	2433.2168502312
10	3720	30	2435.2011956087
10	3941	31	2437.29147981
10	4181	32	2438.672857787
10	4422	33	2439.5458305131
10	4663	34	2440.5569901068
10	4923	35	2441.5662171456
10	5184	36	2442.5764760413
10	5445	37	2443.5864360537
10	5725	38	2444.5969193554
10	6006	39	2445.6077267987
10	6287	40	2446.6171177449
10	6587	41	2447.6285385494
10	6888	42	2448.6389437378
10	7189	43	2449.6489775468
10	7509	44	2450.659299592
10	7830	45	2449.5461587089
10	8151	46	2448.4337074455
10	8491	47	2447.3207898499
10	8832	48	2446.207873206
10	9173	49	2445.0940501215
10	9533	50	2443.9833638043
10	9894	51	2442.8694501355
10	10255	52	2441.7571938549
10	10635	53	2440.6460889142
10	11016	54	2439.6827321647
10	11397	55	2438.7413750661
10	11797	56	2437.8192072627
10	12198	57	2432.6325302194
10	12599	58	2422.106233715
10	13019	59	2408.9688818519
10	13440	60	2395.0345910933
10	13861	61	2381.126587261
10	14301	62	2367.2179763186
10	14742	63	2353.2984252305
10	15183	64	2339.3434596916
10	15643	65	2325.3984135713
10	16104	66	2311.4586331139
10	16565	67	2297.5367558505
10	17045	68	2283.6070172336
10	17526	69	2269.6839314153
10	18007	70	2255.7643697551
10	18507	71	2241.8757564033
10	19008	72	2228.0688688542
10	19509	73	2214.3596332766
10	20030	74	2201.1714023183
10	20551	75	2187.9686336372
10	21072	76	2175.8734212776
10	21612	77	2166.9060475181
10	22153	78	2160.0570473718
10	22694	79	2155.1946690262
10	23254	80	2152.0845165758
10	23815	81	2150.3460835881
10	24376	82	2149.5044575131
10	24956	83	2149.1558657689
10	25537	84	2149.0223896184
10	28833	85	2148.9725696122
10	33647	86	2148.9540163553
10	40102	87	2148.9470391435
10	43047	88	2148.9444051881
10	48639	89	2148.9434134671
10	50755	90	2148.94304363
10	52066	91	2148.9429086937
10	52782	92	2148.9428601107
10	53554	93	2148.9428425793
10	54195	94	2148.9428407104
10	54855	95	2148.9428407104
10	55516	96	2148.9428407104
10	56177	97	2148.9428407104
10	56857	98	2148.9428407104
10	57538	99	2148.9428407104
10	58219	100	2148.9428407104
10	58919	101	2148.9428407104
10	59620	102	2148.9428407104
10	60321	103	2148.9428407104
10	61042	104	2148.9428407104
10	61763	105	2148.9428407104
10	62484	106	2148.9428407104
10	63224	107	2148.9428407104
10	63965	108	2148.9428407104
10	64706	109	2148.9428407104
10	65466	110	2148.9428407104
10	66227	111	2148.9428407104
10	66988	112	2148.9428407104
10	67768	113	2148.9428407104
10	68549	114	2148.9428407104
10	69330	115	2148.9428407104
10	70130	116	2148.9428407104
10	70931	117	2148.9428407104
10	71732	118	2148.9428407104
10	72552	119	2148.9428407104
10	73373	120	2148.9428407104
10	74194	121	2148.9428407104
10	75034	122	2148.9428407104
10	75875	123	2148.9428407104
10	76717	124	2148.8702690681
10	77577	125	2148.0086281676
10	78438	126	2145.7118229447
10	79299	127	2141.8120576798
10	80179	128	2136.7254955326
10	81060	129	2131.117327133
10	81941	130	2124.0657879765
10	82841	131	2115.6133790046
10	83742	132	2106.1561989734
10	84643	133	2096.6378862071
10	85564	134	2087.1217902419
10	86485	135	2077.6044014551
10	87406	136	2068.0710886348
10	88346	137	2058.5401411533
10	89287	138	2049.0209457527
10	90228	139	2039.0665878284
10	91188	140	2029.0627509638
10	92149	141	2019.068488598
10	93110	142	2009.0755044145
10	94090	143	1999.082110878
10	95071	144	1989.0864711792
10	96052	145	1979.0778519714
10	97052	146	1969.0997515288
10	98053	147	1959.1030309986
10	99054	148	1949.0920758178
10	100074	149	1939.0990133696
10	101095	150	1929.3238982954
10	102116	151	1919.5893011614
10	103156	152	1909.8640592867
10	104197	153	1900.1361472709
10	105239	154	1890.3993230128
10	106299	155	1880.685966054
10	107360	156	1870.9506903876
10	108421	157	1861.2166143787
10	109501	158	1851.4722610052
10	110582	159	1841.7369804527
10	111663	160	1831.8535073408
10	112763	161	1821.7426111082
[...]
287	169518	185	9.7325289176456
287	170779	186	9.6895184191502
287	172040	187	9.5708557140312
287	173320	188	9.5956894040654
287	174601	189	9.4541393154406
287	175882	190	9.4879949003064
287	177182	191	9.4922801435492
287	178483	192	7.7853375847062
287	179784	193	6.0273148123034
287	181105	194	4.4217929042567
287	182426	195	2.9756044794615
287	183747	196	1.8612807007319
287	185087	197	0.96766002488021
287	186428	198	0.42182635174988
287	187769	199	0.17891336776662
287	189129	200	0.072159258200678
288	127593	174	1.8785957351141
288	129219	175	2.0432234281115
288	136505	176	1.8102087932639
288	146014	177	1.835606234977
288	150721	178	0.32317489423551
288	159824	179	-0.61150280180069
288	161856	180	-0.643812013958
288	164535	181	-0.35106495714859
288	165775	182	-0.27898803904832
288	167016	183	-0.14996156276111
288	168258	184	-0.16175763368804
288	169518	185	-0.13349145707354
288	170779	186	-0.043010498495448
288	172040	187	-0.11866270511896
288	173320	188	0.024833690034201
288	174601	189	-0.14155008862477
288	175882	190	0.033855584865764
288	177182	191	0.004285243242828
288	178483	192	-1.706942558843
288	179784	193	-1.7580227724029
288	181105	194	-1.6055219080467
288	182426	195	-1.4461884247951
288	183747	196	-1.1143237787296
288	185087	197	-0.89362067585166
288	186428	198	-0.54583367313033
288	187769	199	-0.24291298398327
288	189129	200	-0.10675410956594
289	127593	174	4.1618523283488
289	129219	175	5.5351270590395
289	136505	176	5.9984019279033
289	146014	177	7.0193339422111
289	150721	178	2.7936236636263
289	159824	179	0.973
289	161856	180	0.973
289	164535	181	0.973
289	165775	182	0.973
289	167016	183	1.3244795779926
289	168258	184	1.2900392714646
289	169518	185	1.3515504879559
289	170779	186	1.561024062663
289	172040	187	1.3789823116108
289	173320	188	1.7119463571957
289	174601	189	1.3216150467812
289	175882	190	1.724018738573
289	177182	191	1.6567210991782
289	178483	192	0.973
289	179784	193	0.973
289	181105	194	0.973
289	182426	195	0.973
289	183747	196	0.973
289	185087	197	0.973
289	186428	198	0.973
289	187769	199	0.973
289	189129	200	0.973
290	129219	175	2414.8887947192
290	136505	176	2411.839309744
290	146014	177	2407.1483131133
290	150721	178	2402.1055246805
290	159824	179	2395.7036317975
290	161856	180	2387.9536180414
290	164535	181	2378.9356486216
290	165775	182	2369.7263681659
290	167016	183	2360.5372305254
290	168258	184	2351.4839329404
290	169518	185	2342.9731922124
290	170779	186	2335.9011286141
290	172040	187	2333.8668947089
290	173320	188	2339.2133343287
290	174601	189	2347.1266310998
290	175882	190	2354.6020069881
290	177182	191	2362.2321791128
290	178483	192	2371.5147810123
290	179784	193	2379.3884491734
290	181105	194	2385.8827709075
290	182426	195	2391.0956500977
290	183747	196	2395.0325799037
290	185087	197	2397.8443623888
290	186428	198	2399.6548158071
290	187769	199	2400.6964344787
290	189129	200	2401.2186905668
291	129219	175	1578.4462487241
291	136505	176	1579.5660036923
291	146014	177	1581.567239346
291	150721	178	1586.6748893065
291	159824	179	1593.1591248373
291	161856	180	1601.0088210888
291	164535	181	1610.1427817466
291	165775	182	1619.4705141289
291	167016	183	1628.7778446134
291	168258	184	1637.9475878356
291	169518	185	1646.5883259233
291	170779	186	1655.6416680394
291	172040	187	1666.3156582909
291	173320	188	1674.8092562454
291	174601	189	1681.3794476818
291	175882	190	1688.1209288947
291	177182	191	1694.1577303363
291	178483	192	1695.5451861555
291	179784	193	1696.6523765232
291	181105	194	1697.4253457403
291	182426	195	1697.933603839
291	183747	196	1698.3058668431
291	185087	197	1698.5717396531
291	186428	198	1698.7429301143
291	187769	199	1698.8414221155
291	189129	200	1698.8908049157
292	136505	176	4.1406812462363
292	146014	177	6.0654450932554
292	150721	178	8.1474102431548
292	159824	179	9.9105920719601
292	161856	180	11.990486721428
292	164535	181	13.100831135974
292	165775	182	13.077337078374
292	167016	183	13.110146855266
292	168258	184	12.647587796033
292	169518	185	11.861903611965
292	170779	186	11.251897054644
292	172040	187	10.762691580144
292	173320	188	10.395253332004
292	174601	189	10.160463306642
292	175882	190	9.9230536362815
292	177182	191	9.8511583822751
292	178483	192	8.7802807883677
292	179784	193	7.3350389366889
292	181105	194	5.9150598572958
292	182426	195	4.6677783165768
292	183747	196	3.4030222442361
292	185087	197	2.3886696288934
292	186428	198	1.3984172396444
292	187769	199	0.77129443831687
292	189129	200	0.35789611826728
293	146014	177	1.9247638470191
293	150721	178	2.0819651498995
293	159824	179	1.7631818288052
293	161856	180	2.0798946494679
293	164535	181	1.1103444145459
293	165775	182	-0.023494057599454
293	167016	183	0.032809776891954
293	168258	184	-0.46255905923375
293	169518	185	-0.78568418406799
293	170779	186	-0.6100065573202
293	172040	187	-0.48920547450007
293	173320	188	-0.3674382481402
293	174601	189	-0.23479002536233
293	175882	190	-0.23740967036031
293	177182	191	-0.071895254006449
293	178483	192	-1.0708775939074
293	179784	193	-1.4452418516788
293	181105	194	-1.4199790793931
293	182426	195	-1.247281540719
293	183747	196	-1.2647560723407
293	185087	197	-1.0143526153426
293	186428	198	-0.99025238924902
293	187769	199	-0.62712280132755
293	189129	200	-0.41339832004959
294	146014	177	4.2367774106375
294	150721	178	5.6409845367817
294	159824	179	5.889286488747
294	161856	180	7.857959183656
294	164535	181	5.455390510904
294	165775	182	1.8734061273251
294	167016	183	2.0542565448375
294	168258	184	0.973
294	169518	185	0.973
294	170779	186	0.973
294	172040	187	0.973
294	173320	188	0.973
294	174601	189	0.973
294	175882	190	0.973
294	177182	191	1.5028462858087
294	178483	192	0.973
294	179784	193	0.973
294	181105	194	0.973
294	182426	195	0.973
294	183747	196	0.973
294	185087	197	0.973
294	186428	198	0.973
294	187769	199	0.973
294	189129	200	0.973
295	150721	178	2414.8411606834
295	159824	179	2411.8212945821
295	161856	180	2407.2340216642
295	164535	181	2402.4078865714
295	165775	182	2396.1670496335
295	167016	183	2388.4829322497
295	168258	184	2379.706800545
295	169518	185	2370.8227059451
295	170779	186	2361.9707496609
295	172040	187	2353.1122649581
295	173320	188	2344.2440478104
295	174601	189	2336.3270312872
295	175882	190	2333.8656889133
295	177182	191	2341.5537264398
295	178483	192	2350.9971634647
295	179784	193	2359.2685692153
295	181105	194	2368.0565676257
295	182426	195	2375.8908851432
295	183747	196	2382.2379090653
295	185087	197	2387.2071075563
295	186428	198	2390.8762875041
295	187769	199	2393.3790716749
295	189129	200	2394.9531358999
296	150721	178	1578.4637396941
296	159824	179	1579.5726187658
296	161856	180	1581.4804283911
296	164535	181	1586.3686383655
296	165775	182	1592.6897464124
296	167016	183	1600.4726987174
296	168258	184	1609.3617110867
296	169518	185	1618.3600749951
296	170779	186	1627.3258872181
296	172040	187	1636.2983118296
296	173320	188	1645.2805940667
296	174601	189	1655.0964463288
296	175882	190	1667.2697982499
296	177182	191	1676.6992636202
296	178483	192	1684.8699907148
296	179784	193	1692.3293515956
296	181105	194	1695.0282924725
296	182426	195	1696.199275516
296	183747	196	1696.99152584
296	185087	197	1697.565916175
296	186428	198	1697.9128616415
296	187769	199	1698.1495165974
296	189129	200	1698.2983548818
297	159824	179	4.0301020879068
297	161856	180	5.7866659510231
297	164535	181	7.8106567098528
297	165775	182	9.7852737790208
297	167016	183	11.771192707108
297	168258	184	12.646955651697
297	169518	185	12.691492472105
297	170779	186	12.65436932687
297	172040	187	12.633675903024
297	173320	188	12.599634996388
297	174601	189	12.659472650269
297	175882	190	12.658417382807
297	177182	191	12.63769881008
297	178483	192	12.043301552481
297	179784	193	10.413530604008
297	181105	194	8.7867382522903
297	182426	195	7.322603631566
297	183747	196	5.7391122827922
297	185087	197	4.4579553424186
297	186428	198	3.0844155497465
297	187769	199	2.0439939088209
297	189129	200	1.2355295623238
298	161856	180	1.7565638631163
298	164535	181	2.0239907588297
298	165775	182	1.974617069168
298	167016	183	1.9859189280868
298	168258	184	0.87576294458965
298	169518	185	0.044536820407956
298	170779	186	-0.037123145235237
298	172040	187	-0.020693423845804
298	173320	188	-0.034040906636511
298	174601	189	0.059837653881406
298	175882	190	-0.0010552674625082
298	177182	191	-0.020718572726473
298	178483	192	-0.59439725759904
298	179784	193	-1.6297709484727
298	181105	194	-1.6267923517181
298	182426	195	-1.4641346207242
298	183747	196	-1.5834913487738
298	185087	197	-1.2811569403737
298	186428	198	-1.3735397926721
298	187769	199	-1.0404216409256
298	189129	200	-0.80846434649705
299	161856	180	3.8567292070852
299	164535	181	5.3407005675328
299	165775	182	6.3252391424865
299	167016	183	7.4622837645495
299	168258	184	4.5762074728406
299	169518	185	2.0473074295133
299	170779	186	1.7944271933776
299	172040	187	1.8427210667168
299	173320	188	1.7992172049887
299	174601	189	2.0906751831929
299	175882	190	1.9047974625166
299	177182	191	1.8429964782652
299	178483	192	0.973
299	179784	193	0.973
299	181105	194	0.973
299	182426	195	0.973
299	183747	196	0.973
299	185087	197	0.973
299	186428	198	0.973
299	187769	199	0.973
299	189129	200	0.973
300	164535	181	2414.8779380508
300	165775	182	2411.9970329538
300	167016	183	2407.4862191244
300	168258	184	2402.5944783367
300	169518	185	2396.3107487656
300	170779	186	2388.7262865513
300	172040	187	2380.8504155858
300	173320	188	2372.9843149764
300	174601	189	2365.0945059197
300	175882	190	2357.2114851256
300	177182	191	2349.3247325944
300	178483	192	2341.6477208548
300	179784	193	2335.177532454
300	181105	194	2334.0491336513
300	182426	195	2341.3654217112
300	183747	196	2349.8683449661
300	185087	197	2358.1906958385
300	186428	198	2367.7850334342
300	187769	199	2376.123123192
300	189129	200	2382.3014627453
301	164535	181	1578.4502352364
301	165775	182	1579.5080885524
301	167016	183	1581.2249871083
301	168258	184	1586.1796466131
301	169518	185	1592.5441989889
301	170779	186	1600.2262143353
301	172040	187	1608.2033866011
301	173320	188	1616.1706628418
301	174601	189	1624.1619524732
301	175882	190	1632.1463665301
301	177182	191	1640.1345603233
301	178483	192	1648.2851355597
301	179784	193	1657.3384426096
301	181105	194	1668.4333620165
301	182426	195	1676.5471962271
301	183747	196	1683.8519939184
301	185087	197	1691.3572983872
301	186428	198	1694.9877066864
301	187769	199	1696.23398777
301	189129	200	1696.9990901463
302	165775	182	3.8568705508995
302	167016	183	5.7107599186359
302	168258	184	7.8633960219004
302	169518	185	9.8373710972068
302	170779	186	11.236298415992
302	172040	187	11.218727136085
302	173320	188	11.165747769568
302	174601	189	11.275574481318
302	175882	190	11.176221124339
302	177182	191	11.209788830762
302	178483	192	11.23493280611
302	179784	193	11.244871398192
302	181105	194	11.147921455172
302	182426	195	11.249734024895
302	183747	196	11.198601163442
302	185087	197	11.229697564426
302	186428	198	9.6867360400611
302	187769	199	7.3906289849601
302	189129	200	5.2776683298751
303	167016	183	1.8538893677364
303	168258	184	2.1526361032645
303	169518	185	1.9739750753064
303	170779	186	1.3989273187849
303	172040	187	-0.017571279907132
303	173320	188	-0.052979366516229
303	174601	189	0.10982671174919
303	175882	190	-0.099353356978391
303	177182	191	0.033567706423346
303	178483	192	0.025143975347746
303	179784	193	0.0099385920818893
303	181105	194	-0.096949943020007
303	182426	195	0.10181256972253
303	183747	196	-0.051132861452643
303	185087	197	0.031096400984097
303	186428	198	-1.542961524365
303	187769	199	-2.296107055101
303	189129	200	-2.112960655085
304	167016	183	3.954187267393
304	168258	184	5.6136607088567
304	169518	185	6.3524123290938
304	170779	186	5.5713130043435
304	172040	187	1.7341214897485
304	173320	188	1.6346696674767
304	174601	189	2.0848090125448
304	175882	190	1.5104964706997
304	177182	191	1.8715716279651
304	178483	192	1.8510573306451
304	179784	193	1.8107381632415
304	181105	194	1.5152888775727
304	182426	195	2.0602422914509
304	183747	196	1.6419569903935
304	185087	197	1.8666993982651
304	186428	198	0.973
304	187769	199	0.973
304	189129	200	0.973
305	168258	184	2414.8788141906
305	169518	185	2412.0652779912
305	170779	186	2407.551033954
305	172040	187	2402.8081792406
305	173320	188	2396.7116066761
305	174601	189	2389.3548582763
305	175882	190	2380.744486539
305	177182	191	2371.7330126754
305	178483	192	2362.7249511016
305	179784	193	2353.713147666
305	181105	194	2344.6833110899
305	182426	195	2336.5824422954
305	183747	196	2333.8309977797
305	185087	197	2341.5169611881
305	186428	198	2350.8687225336
305	187769	199	2358.6832128648
305	189129	200	2366.4176509907
306	168258	184	1578.4499135222
306	169518	185	1579.4830293311
306	170779	186	1581.1593386149
306	172040	187	1585.9631970385
306	173320	188	1592.13818515
306	174601	189	1599.5895577734
306	175882	190	1608.3106781319
306	177182	191	1617.4380596867
306	178483	192	1626.5619850615
306	179784	193	1635.6897004275
306	181105	194	1644.8356808797
306	182426	195	1654.7694804864
306	183747	196	1667.0497573456
306	185087	197	1676.6695734682
306	186428	198	1684.7541594654
306	187769	199	1691.8014625777
306	189129	200	1694.7833261965
307	169518	185	3.7541588574195
307	170779	186	5.7118946708985
307	172040	187	7.5933595718689
307	173320	188	9.6098677490083
307	174601	189	11.185632338146
307	175882	190	12.828064661029
307	177182	191	12.858428171399
307	178483	192	12.773671595888
307	179784	193	12.883004034611
307	181105	194	12.869395815994
307	182426	195	12.818268577999
307	183747	196	12.806688598868
307	185087	197	12.836134299191
307	186428	198	11.620574435326
307	187769	199	9.6698515647951
307	189129	200	7.8544108825929
308	170779	186	1.9577358134789
308	172040	187	1.8814649009705
308	173320	188	2.0165081771393
308	174601	189	1.5757645891374
308	175882	190	1.6424323228832
308	177182	191	0.030363510369789
308	178483	192	-0.084756575510838
308	179784	193	0.10933243872365
308	181105	194	-0.013608218617739
308	182426	195	-0.051127237994223
308	183747	196	-0.01157997913193
308	185087	197	0.029445700323842
308	186428	198	-1.2155598638658
308	187769	199	-1.9507228705305
308	189129	200	-1.8154406822022
309	170779	186	4.0977108093026
309	172040	187	4.9598296968464
309	173320	188	6.3257520636553
309	174601	189	6.0267292681764
309	175882	190	7.0015194515765
309	177182	191	2.0207811610832
309	178483	192	1.657822167393
309	179784	193	2.2684578372911
309	181105	194	1.885514090343
309	182426	195	1.7649741148387
309	183747	196	1.8860904866543
309	185087	197	2.015683544342
309	186428	198	0.973
309	187769	199	0.973
309	189129	200	0.973
310	172040	187	2414.8585700947
310	173320	188	2411.9969703056
310	174601	189	2407.3590078291
310	175882	190	2402.5038493358
310	177182	191	2396.2110340785
310	178483	192	2388.5356686392
310	179784	193	2379.5098477243
310	181105	194	2370.1418326314
310	182426	195	2360.7787300163
310	183747	196	2351.4193250611
310	185087	197	2342.1844435789
310	186428	198	2334.9812863778
310	187769	199	2335.3851237283
310	189129	200	2345.3407236338
311	172040	187	1578.4573470484
311	173320	188	1579.508111557
311	174601	189	1581.3538346253
311	175882	190	1586.271441306
311	177182	191	1592.6451962292
311	178483	192	1600.4192840196
311	179784	193	1609.5611971607
311	181105	194	1619.0497058611
311	182426	195	1628.533238899
311	183747	196	1638.0130267162
311	185087	197	1647.5980469361
311	186428	198	1658.5203126362
311	187769	199	1671.4201332461
311	189129	200	1679.768871597
312	173320	188	3.8585680350128
312	174601	189	5.8516531472004
312	175882	190	7.8973758989761
312	177182	191	9.8557514331911
312	178483	192	11.942946414342
312	179784	193	13.281673413053
312	181105	194	13.354737228594
312	182426	195	13.387590942945
312	183747	196	13.339860889638
312	185087	197	13.271152209534
312	186428	198	13.34358413055
312	187769	199	13.36102348745
312	189129	200	12.234186555332
313	174601	189	1.9930851121875
313	175882	190	2.0457227517758
313	177182	191	1.958375534215
313	178483	192	2.0871949811513
313	179784	193	1.3387269987105
313	181105	194	0.073063815541101
313	182426	195	0.032853714351075
313	183747	196	-0.047730053307022
313	185087	197	-0.068708680104464
313	186428	198	0.072431921015959
313	187769	199	0.017439356900287
313	189129	200	-1.126836932118
314	174601	189	4.2215389405203
314	175882	190	5.4300282473119
314	177182	191	6.3254843183846
314	178483	192	7.8509615055178
314	179784	193	6.2522535986235
314	181105	194	2.2094162023778
314	182426	195	2.0834731771849
314	183747	196	1.8193611538366
314	185087	197	1.7463689745143
314	186428	198	2.2060989357288
314	187769	199	2.0310298725026
314	189129	200	0.973
315	175882	190	2414.8925589694
315	177182	191	2411.9627857993
315	178483	192	2407.3062772232
315	179784	193	2402.3654572419
315	181105	194	2395.9558072921
315	182426	195	2388.1006089912
315	183747	196	2378.978760769
315	185087	197	2369.4012116214
315	186428	198	2359.8513236765
315	187769	199	2350.290784059
315	189129	200	2341.0180881016
316	175882	190	1578.444866511
316	177182	191	1579.5206639292
316	178483	192	1581.4072434641
316	179784	193	1586.4116134318
316	181105	194	1592.9037058027
316	182426	195	1600.8599395072
316	183747	196	1610.0991150811
316	185087	197	1619.7998529123
316	186428	198	1629.4725737572
316	187769	199	1639.1560832784
316	189129	200	1649.0911634816
317	177182	191	3.9973312404595
317	178483	192	5.9655132869614
317	179784	193	8.0251987055532
317	181105	194	10.022291549822
317	182426	195	12.077283199195
317	183747	196	13.597041808876
317	185087	197	13.66531432328
317	186428	198	13.566644394974
317	187769	199	13.582692384666
317	189129	200	13.596724563934
318	178483	192	1.9681820465019
318	179784	193	2.0596854185918
318	181105	194	1.9970928442688
318	182426	195	2.054991649373
318	183747	196	1.519758609681
318	185087	197	0.068272514403798
318	186428	198	-0.098669928305316
318	187769	199	0.016047989691142
318	189129	200	0.014032179268542
319	178483	192	4.2470211938026
319	179784	193	5.5284636503922
319	181105	194	6.5101960467323
319	182426	195	7.8366535299921
319	183747	196	6.978222049931
319	185087	197	2.2297984887385
319	186428	198	1.6725169632209
319	187769	199	2.0492499954432
319	189129	200	2.0440939392049
320	179784	193	2414.8450449788
320	181105	194	2411.8481639778
320	182426	195	2407.1918824697
320	183747	196	2402.1068140625
320	185087	197	2395.6393894139
320	186428	198	2387.8540473643
320	187769	199	2378.7425860802
320	189129	200	2368.9560980042
321	179784	193	1578.4623134006
321	181105	194	1579.5627524639
321	182426	195	1581.5231095897
321	183747	196	1586.6735833399
321	185087	197	1593.2241935218
321	186428	198	1601.1096724672
321	187769	199	1610.3383275038
321	189129	200	1620.2506916858
322	181105	194	4.0768216341553
322	182426	195	6.1146311434992
322	183747	196	8.1238958659168
322	185087	197	10.07226857951
322	186428	198	11.975930302181
322	187769	199	13.751272715454
322	189129	200	13.880561356815
323	182426	195	2.0378095093439
323	183747	196	2.0092647224176
323	185087	197	1.9483727135928
323	186428	198	1.9036617226712
323	187769	199	1.7753424132732
323	189129	200	0.12928864136057
324	182426	195	4.4290585903548
324	183747	196	5.4852832676338
324	185087	197	6.4197949691156
324	186428	198	7.340737888557
324	187769	199	7.8971625527147
324	189129	200	2.4591516963765
325	183747	196	2414.8708323571
325	185087	197	2412.0068498836
325	186428	198	2407.3947947501
325	187769	199	2402.6063379883
325	189129	200	2396.4215075286
326	183747	196	1578.4528444102
326	185087	197	1579.5044838274
326	186428	198	1581.3175874045
326	187769	199	1586.1676344201
326	189129	200	1592.4320156202
327	185087	197	3.9035555463673
327	186428	198	5.8214058272394
327	187769	199	7.7054297537466
327	189129	200	9.6555590937442
328	186428	198	1.9178502808721
328	187769	199	1.8840239265072
328	189129	200	1.9501293399977
329	186428	198	4.0997140834571
329	187769	199	5.0226217989374
329	189129	200	6.1968733187211
330	187769	199	2414.8713181916
330	189129	200	2411.9594073247
331	187769	199	1578.4526660144
331	189129	200	1579.5219044872
332	189129	200	3.9654431967067

